* LVS netlist generated with ICnet by 'jk526' on Mon Oct 17 2022 at 21:32:08

*
* Component pathname : $HOME/ece658/hw5/schema/three_in_aoi
*
.subckt three_in_aoi  Y GND VDD C B A

        MN3 GND C Y GND n L=2u W=5u
        MN2 N$12 B GND GND n L=2u W=5u
        MN1 Y A N$12 GND n L=2u W=5u
        MP3 VDD B N$9 VDD p L=2u W=5u
        MP2 Y C N$9 VDD p L=2u W=5u
        MP1 N$9 A VDD VDD p L=2u W=5u
.ends three_in_aoi

