* File: carry_skip_adder.pex.netlist.pex
* Created: Sun Dec 18 19:16:29 2022
* Program "Calibre xRC"
* Version "v2012.2_36.25"
* Nominal Temperature: 27C
* Circuit Temperature: 27C
* 
.subckt PM_CARRY_SKIP_ADDER%CINN 1 4 6 17 20 23 32
c9 34 0 0.07965f
c10 32 0 0.0266588f
c11 30 0 0.01023f
c12 29 0 0.098828f
c13 28 0 0.0988255f
c14 27 0 0.098828f
c15 26 0 0.0988255f
c16 25 0 0.00496f
c17 24 0 0.0988255f
c18 23 0 0.0700575f
c19 20 0 0.03096f
c20 17 0 0.0316188f
c21 6 0 0.11524f
c22 4 0 0.134877f
c23 1 0 0.0378366f
r24 30 34 0.0223492
r25 30 32 0.39
r26 28 29 1.594
r27 27 28 1.594
r28 26 27 1.594
r29 25 26 1.594
r30 24 34 0.0223492
r31 24 29 1.594
r32 23 25 0.0446983
r33 22 23 1.13
r34 19 20 9.6
r35 17 22 0.0446983
r36 17 19 0.49
r37 4 6 257.95
r38 1 20 7.5254
r39 1 6 84.7
.ends

.subckt PM_CARRY_SKIP_ADDER%2 1 2 4 5 7 10 12 31 35 37 40 43 45 54 55 59 60 62
+ 63
c19 55 0 0.00496f
c20 54 0 0.00496f
c21 45 0 0.0483588f
c22 43 0 0.00496f
c23 40 0 0.0483588f
c24 37 0 0.0247975f
c25 35 0 0.0247975f
c26 31 0 0.0359588f
c27 12 0 0.0508388f
c28 10 0 0.130197f
c29 7 0 0.0326783f
c30 5 0 0.03096f
c31 2 0 0.03096f
c32 1 0 0.0584766f
r33 46 63 7.36531
r34 45 46 10.4
r35 43 45 0.74
r36 41 62 7.36311
r37 40 41 10.4
r38 38 54 0.00880368
r39 38 40 0.74
r40 37 43 0.0446983
r41 36 55 0.0338756
r42 36 37 0.48
r43 35 55 0.0338756
r44 34 54 0.0338756
r45 34 35 0.48
r46 31 32 9.6
r47 29 54 0.0338756
r48 29 31 0.63998
r49 26 27 9.6
r50 18 21 0.26
r51 15 60 1.40602
r52 15 59 1.40648
r53 15 21 10.8
r54 15 18 10.8
r55 14 18 0.26
r56 14 15 10.8
r57 12 55 0.00880368
r58 12 21 0.26
r59 10 53 0.00924305
r60 10 26 0.43952
r61 10 53 0.0395
r62 5 32 7.5254
r63 5 7 50.05
r64 2 27 7.5254
r65 2 4 65.45
r66 1 32 7.5254
r67 1 4 65.45
.ends

.subckt PM_CARRY_SKIP_ADDER%3 1 4 6 7 8 10 11 13 19 28 31 34 41 60 64 66 69 72
+ 74 88 89 97 98 100 101 105
c29 105 0 0.409508f
c30 89 0 0.00496f
c31 88 0 0.00496f
c32 84 0 0.13284f
c33 83 0 0.01395f
c34 80 0 0.0988255f
c35 79 0 0.07965f
c36 78 0 0.01023f
c37 74 0 0.0483588f
c38 72 0 0.00496f
c39 69 0 0.0483588f
c40 66 0 0.0247975f
c41 64 0 0.0247975f
c42 60 0 0.0359588f
c43 41 0 0.0508388f
c44 40 0 0.098828f
c45 39 0 0.0988255f
c46 38 0 0.098828f
c47 37 0 0.0988255f
c48 36 0 0.00496f
c49 34 0 0.0700575f
c50 31 0 0.03096f
c51 28 0 0.0316188f
c52 19 0 0.0259768f
c53 13 0 0.0326783f
c54 11 0 0.03096f
c55 8 0 0.03096f
c56 7 0 0.0584766f
c57 6 0 0.11524f
c58 4 0 0.134877f
c59 1 0 0.0378366f
r60 84 105 0.056919
r61 83 84 4.29
r62 78 80 0.0497294
r63 78 79 4.29
r64 75 101 7.36421
r65 74 75 10.4
r66 72 74 0.74
r67 70 100 7.36421
r68 69 70 10.4
r69 67 88 0.00880368
r70 67 69 0.74
r71 66 72 0.0446983
r72 65 89 0.0338756
r73 65 66 0.48
r74 64 89 0.0338756
r75 63 88 0.0338756
r76 63 64 0.48
r77 60 61 9.6
r78 58 88 0.0338756
r79 58 60 0.64
r80 55 56 9.6
r81 47 50 0.26
r82 44 98 1.40625
r83 44 97 1.40625
r84 44 50 10.8
r85 44 47 10.8
r86 43 47 0.26
r87 43 44 10.8
r88 41 89 0.00880368
r89 41 50 0.26
r90 40 80 1.594
r91 39 40 1.594
r92 38 39 1.594
r93 37 38 1.594
r94 36 37 1.594
r95 34 36 0.0446983
r96 33 34 1.13
r97 30 31 9.6
r98 28 33 0.0446983
r99 28 30 0.49
r100 19 87 0.00924305
r101 19 83 0.0663333
r102 19 55 0.4395
r103 19 87 0.0395
r104 15 79 0.042796
r105 15 105 0.70875
r106 11 61 7.5254
r107 11 13 50.05
r108 8 56 7.5254
r109 8 10 65.45
r110 7 61 7.5254
r111 7 10 65.45
r112 4 6 257.95
r113 1 31 7.5254
r114 1 6 84.7
.ends

.subckt PM_CARRY_SKIP_ADDER%4 1 4 6 7 8 10 11 13 19 28 31 34 41 60 64 66 69 72
+ 74 88 89 97 98 100 101 105
c29 105 0 0.409508f
c30 89 0 0.00496f
c31 88 0 0.00496f
c32 84 0 0.13284f
c33 83 0 0.01395f
c34 80 0 0.0988255f
c35 79 0 0.07965f
c36 78 0 0.01023f
c37 74 0 0.0483588f
c38 72 0 0.00496f
c39 69 0 0.0483588f
c40 66 0 0.0247975f
c41 64 0 0.0247975f
c42 60 0 0.0359588f
c43 41 0 0.0508388f
c44 40 0 0.098828f
c45 39 0 0.0988255f
c46 38 0 0.098828f
c47 37 0 0.0988255f
c48 36 0 0.00496f
c49 34 0 0.0700575f
c50 31 0 0.03096f
c51 28 0 0.0316188f
c52 19 0 0.0259768f
c53 13 0 0.0326783f
c54 11 0 0.03096f
c55 8 0 0.03096f
c56 7 0 0.0584766f
c57 6 0 0.11524f
c58 4 0 0.134877f
c59 1 0 0.0378366f
r60 84 105 0.0569267
r61 83 84 4.29
r62 78 80 0.0497294
r63 78 79 4.29
r64 75 101 7.36531
r65 74 75 10.4
r66 72 74 0.74
r67 70 100 7.36311
r68 69 70 10.4
r69 67 88 0.00880368
r70 67 69 0.74
r71 66 72 0.0446983
r72 65 89 0.0338756
r73 65 66 0.48
r74 64 89 0.0338756
r75 63 88 0.0338756
r76 63 64 0.48
r77 60 61 9.6
r78 58 88 0.0338756
r79 58 60 0.63998
r80 55 56 9.6
r81 47 50 0.26
r82 44 98 1.40602
r83 44 97 1.40648
r84 44 50 10.8
r85 44 47 10.8
r86 43 47 0.26
r87 43 44 10.8
r88 41 89 0.00880368
r89 41 50 0.26
r90 40 80 1.594
r91 39 40 1.594
r92 38 39 1.594
r93 37 38 1.594
r94 36 37 1.594
r95 34 36 0.0446983
r96 33 34 1.13
r97 30 31 9.6
r98 28 33 0.0446983
r99 28 30 0.49
r100 19 87 0.00924305
r101 19 83 0.06632
r102 19 55 0.43952
r103 19 87 0.0395
r104 15 79 0.0427843
r105 15 105 0.70875
r106 11 61 7.5254
r107 11 13 50.05
r108 8 56 7.5254
r109 8 10 65.45
r110 7 61 7.5254
r111 7 10 65.45
r112 4 6 257.95
r113 1 31 7.5254
r114 1 6 84.7
.ends

.subckt PM_CARRY_SKIP_ADDER%5 1 4 6 7 8 10 11 13 16 19 28 31 34 41 60 64 66 69
+ 72 74 88 89 97 98 100 101
c29 89 0 0.00496f
c30 88 0 0.00496f
c31 86 0 0.0988255f
c32 85 0 0.07965f
c33 84 0 0.01023f
c34 79 0 0.06903f
c35 78 0 0.01395f
c36 74 0 0.0483588f
c37 72 0 0.00496f
c38 69 0 0.0483588f
c39 66 0 0.0247975f
c40 64 0 0.0247975f
c41 60 0 0.0359588f
c42 41 0 0.0508388f
c43 40 0 0.098828f
c44 39 0 0.0988255f
c45 38 0 0.098828f
c46 37 0 0.0988255f
c47 36 0 0.00496f
c48 34 0 0.0700575f
c49 31 0 0.03096f
c50 28 0 0.0316188f
c51 19 0 0.0259768f
c52 16 0 0.499268f
c53 13 0 0.0326783f
c54 11 0 0.03096f
c55 8 0 0.03096f
c56 7 0 0.0584766f
c57 6 0 0.11524f
c58 4 0 0.134877f
c59 1 0 0.0378366f
r60 85 106 0.0427843
r61 84 86 0.0497294
r62 84 85 4.29
r63 78 79 4.29
r64 75 101 7.36421
r65 74 75 10.4
r66 72 74 0.74
r67 70 100 7.36421
r68 69 70 10.4
r69 67 88 0.00880368
r70 67 69 0.74
r71 66 72 0.0446983
r72 65 89 0.0338756
r73 65 66 0.48
r74 64 89 0.0338756
r75 63 88 0.0338756
r76 63 64 0.48
r77 60 61 9.6
r78 58 88 0.0338756
r79 58 60 0.63998
r80 55 56 9.6
r81 47 50 0.26
r82 44 98 1.40625
r83 44 97 1.40625
r84 44 50 10.8
r85 44 47 10.8
r86 43 47 0.26
r87 43 44 10.8
r88 41 89 0.00880368
r89 41 50 0.26
r90 40 86 1.594
r91 39 40 1.594
r92 38 39 1.594
r93 37 38 1.594
r94 36 37 1.594
r95 34 36 0.0446983
r96 33 34 1.13
r97 30 31 9.6
r98 28 33 0.0446983
r99 28 30 0.49
r100 19 82 0.00924305
r101 19 78 0.06632
r102 19 55 0.43952
r103 19 82 0.0395
r104 16 79 0.0369743
r105 16 106 0.84875
r106 11 61 7.5254
r107 11 13 50.05
r108 8 56 7.5254
r109 8 10 65.45
r110 7 61 7.5254
r111 7 10 65.45
r112 4 6 257.95
r113 1 31 7.5254
r114 1 6 84.7
.ends

.subckt PM_CARRY_SKIP_ADDER%A1N 1 4 5 6 8 9 12 14 15 16 18 19 20 22 24 31 46 47
+ 49 51 54 57 60 72 89 94 97 100 104 106 107 109 114 115 117 119 132 133 145 171
+ 172
c52 176 0 0.0897376f
c53 149 0 0.00849276f
c54 145 0 0.00496f
c55 142 0 0.066375f
c56 139 0 0.00496f
c57 137 0 0.07965f
c58 136 0 0.01023f
c59 133 0 0.0699968f
c60 132 0 0.067518f
c61 131 0 0.0675155f
c62 125 0 0.03096f
c63 119 0 0.0111606f
c64 117 0 0.00248f
c65 115 0 0.03096f
c66 114 0 0.0260388f
c67 109 0 0.0225048f
c68 107 0 0.0118087f
c69 106 0 0.0167375f
c70 104 0 0.0322375f
c71 102 0 0.00496f
c72 101 0 0.0192175f
c73 100 0 0.0384375f
c74 97 0 0.03096f
c75 94 0 0.0202983f
c76 92 0 0.0843175f
c77 89 0 0.0173588f
c78 84 0 0.0205995f
c79 82 0 0.115318f
c80 81 0 0.0204575f
c81 72 0 0.0334788f
c82 66 0 0.09982f
c83 65 0 0.0998175f
c84 64 0 0.09982f
c85 63 0 0.0998175f
c86 62 0 0.00496f
c87 61 0 0.0998175f
c88 60 0 0.0626175f
c89 57 0 0.03096f
c90 54 0 0.0644788f
c91 51 0 0.0111606f
c92 49 0 0.00248f
c93 47 0 0.03096f
c94 46 0 0.0260388f
c95 32 0 0.00269933f
c96 31 0 0.0141955f
c97 26 0 0.04488f
c98 24 0 0.476828f
c99 20 0 0.03096f
c100 19 0 0.0533166f
c101 16 0 0.03096f
c102 15 0 0.134157f
c103 14 0 0.11524f
c104 12 0 0.134877f
c105 9 0 0.0378366f
c106 6 0 0.03096f
c107 5 0 0.0533166f
c108 4 0 0.05576f
c109 1 0 0.134157f
r110 142 176 0.0435132
r111 141 143 0.0650027
r112 141 142 4.29
r113 136 137 4.29
r114 132 133 1.09778
r115 131 132 1.09337
r116 124 125 9.6
r117 119 120 9.6
r118 117 119 0.36
r119 114 115 9.6
r120 112 117 0.0446983
r121 112 114 0.51998
r122 109 110 9.6
r123 107 147 0.149663
r124 107 109 0.423
r125 106 147 0.00478818
r126 105 106 0.27
r127 103 146 0.00478818
r128 103 104 0.52
r129 101 105 0.0446983
r130 101 102 0.23
r131 100 102 0.0446983
r132 99 100 0.62
r133 96 97 9.6
r134 94 146 0.139686
r135 94 96 0.207
r136 93 143 0.0173285
r137 92 99 0.0446983
r138 92 93 1.28
r139 90 172 7.36311
r140 89 90 10.4
r141 87 145 0.0338756
r142 87 89 0.24
r143 85 145 0.00880368
r144 83 139 0.0338756
r145 82 104 0.0446983
r146 82 83 1.78
r147 81 136 0.0422564
r148 80 139 0.00880368
r149 80 81 0.33
r150 79 171 6.8089
r151 78 79 10.8
r152 75 171 6.8089
r153 74 78 0.2
r154 74 75 10.8
r155 72 145 0.0338756
r156 72 78 0.3
r157 65 66 1.61
r158 64 65 1.61
r159 63 64 1.61
r160 62 63 1.61
r161 61 139 0.0338756
r162 61 66 1.61
r163 60 62 0.0446983
r164 59 60 1.01
r165 56 57 9.6
r166 54 59 0.0446983
r167 54 56 1.02
r168 51 52 9.6
r169 49 51 0.36002
r170 46 47 9.6
r171 44 49 0.0446983
r172 44 46 0.51998
r173 32 149 0.0212346
r174 32 131 1.089
r175 32 149 0.0185
r176 32 124 0.1785
r177 31 84 0.0319439
r178 31 143 0.0465956
r179 31 85 0.2245
r180 31 84 0.0045
r181 26 176 0.14
r182 24 26 0.039111
r183 23 137 0.0427843
r184 23 24 0.81375
r185 20 120 7.5254
r186 20 22 34.65
r187 19 125 7.5254
r188 19 22 84.7
r189 16 110 7.5254
r190 16 18 177.1
r191 15 115 7.5254
r192 15 18 123.2
r193 12 14 257.95
r194 9 97 7.5254
r195 9 14 84.7
r196 6 52 7.52412
r197 6 8 34.65
r198 5 57 7.5254
r199 5 8 84.7
r200 1 47 7.52669
r201 1 4 123.2
.ends

.subckt PM_CARRY_SKIP_ADDER%A3N 1 4 5 8 9 10 12 13 14 16 29 36 51 64 71 72 74 76
+ 86 90 91 93 120 121 123 125 137 138 139 150 172 173 174 175
c38 154 0 0.00849276f
c39 152 0 0.00496f
c40 150 0 0.00496f
c41 147 0 0.066375f
c42 139 0 0.0697909f
c43 138 0 0.0673109f
c44 137 0 0.0673084f
c45 131 0 0.03096f
c46 125 0 0.0111606f
c47 123 0 0.00248f
c48 121 0 0.03096f
c49 120 0 0.0260388f
c50 115 0 0.0198388f
c51 102 0 0.0309988f
c52 101 0 0.00496f
c53 100 0 0.0998175f
c54 99 0 0.04526f
c55 98 0 0.0452575f
c56 97 0 0.0452575f
c57 93 0 0.0225048f
c58 91 0 0.0118087f
c59 90 0 0.0167375f
c60 88 0 0.00496f
c61 87 0 0.0192175f
c62 86 0 0.0384375f
c63 82 0 0.03096f
c64 79 0 0.0328588f
c65 76 0 0.0111606f
c66 74 0 0.00248f
c67 72 0 0.03096f
c68 71 0 0.0260388f
c69 67 0 0.0843175f
c70 64 0 0.0173588f
c71 59 0 0.0205995f
c72 51 0 0.0334788f
c73 48 0 0.0334788f
c74 45 0 0.00775f
c75 41 0 0.0291375f
c76 37 0 0.00269933f
c77 36 0 0.0141955f
c78 29 0 0.286088f
c79 27 0 0.430096f
c80 26 0 0.430074f
c81 25 0 0.04488f
c82 24 0 0.474965f
c83 23 0 0.047835f
c84 21 0 0.858308f
c85 18 0 0.173992f
c86 14 0 0.03096f
c87 13 0 0.0533166f
c88 10 0 0.03096f
c89 9 0 0.134157f
c90 6 0 0.03096f
c91 5 0 0.0533166f
c92 2 0 0.03096f
c93 1 0 0.134157f
r94 146 148 0.0650027
r95 146 147 4.29
r96 138 139 1.09442
r97 137 138 1.09002
r98 130 131 9.6
r99 125 126 9.6
r100 123 125 0.36
r101 120 121 9.6
r102 118 123 0.0446983
r103 118 120 0.51998
r104 116 175 7.36311
r105 115 116 10.4
r106 113 152 0.0338756
r107 113 115 0.28
r108 111 152 0.00880368
r109 109 173 6.8089
r110 108 109 10.8
r111 105 173 6.8089
r112 104 108 0.2
r113 104 105 10.8
r114 102 152 0.0338756
r115 102 108 0.26
r116 100 110 0.0446983
r117 100 101 1.53
r118 98 99 0.73
r119 97 99 0.73
r120 96 101 0.0446983
r121 96 98 0.73
r122 93 94 9.6
r123 91 151 0.149663
r124 91 93 0.423
r125 90 151 0.00478818
r126 89 90 0.27
r127 87 89 0.0446983
r128 87 88 0.23
r129 86 88 0.0446983
r130 85 86 0.62
r131 81 82 9.6
r132 79 97 0.0446983
r133 76 77 9.6
r134 74 76 0.36
r135 71 72 9.6
r136 69 74 0.0446983
r137 69 71 0.51998
r138 68 148 0.0173285
r139 67 85 0.0446983
r140 67 68 1.28
r141 65 174 7.36311
r142 64 65 10.4
r143 62 150 0.0338756
r144 62 64 0.24
r145 60 150 0.00880368
r146 58 172 6.8089
r147 57 58 10.8
r148 54 172 6.8089
r149 53 57 0.2
r150 53 54 10.8
r151 51 150 0.0338756
r152 51 57 0.3
r153 48 49 9.6
r154 45 142 0.0434303
r155 41 111 0.3
r156 41 110 0.17
r157 40 79 0.31
r158 40 81 0.2
r159 38 48 0.42
r160 38 45 0.18
r161 37 154 0.0212346
r162 37 137 1.08566
r163 37 154 0.0185
r164 37 130 0.1785
r165 36 59 0.0319439
r166 36 148 0.0465956
r167 36 60 0.2245
r168 36 59 0.0045
r169 29 147 0.0369743
r170 28 29 0.51625
r171 26 27 0.670828
r172 25 26 0.670828
r173 24 28 0.039111
r174 24 27 0.670828
r175 21 25 0.039111
r176 20 23 0.0392873
r177 20 21 1.33875
r178 18 142 4.29
r179 18 23 0.155556
r180 14 126 7.5254
r181 14 16 34.65
r182 13 131 7.5254
r183 13 16 84.7
r184 10 94 7.5254
r185 10 12 177.1
r186 9 121 7.5254
r187 9 12 123.2
r188 6 77 7.5254
r189 6 8 34.65
r190 5 82 7.5254
r191 5 8 84.7
r192 2 49 7.5254
r193 2 4 177.1
r194 1 72 7.5254
r195 1 4 123.2
.ends

.subckt PM_CARRY_SKIP_ADDER%A0N 1 4 5 6 8 9 12 14 15 16 18 19 20 22 24 31 46 47
+ 49 51 54 57 60 72 89 94 97 100 104 106 107 109 114 115 117 119 133 145 171 172
c51 149 0 0.00849276f
c52 145 0 0.00496f
c53 139 0 0.00496f
c54 137 0 0.07965f
c55 136 0 0.01023f
c56 133 0 0.0695851f
c57 132 0 0.0671038f
c58 131 0 0.0671014f
c59 125 0 0.03096f
c60 119 0 0.0111606f
c61 117 0 0.00248f
c62 115 0 0.03096f
c63 114 0 0.0260388f
c64 109 0 0.0225048f
c65 107 0 0.0118087f
c66 106 0 0.0167375f
c67 104 0 0.0322375f
c68 102 0 0.00496f
c69 101 0 0.0192175f
c70 100 0 0.0384375f
c71 97 0 0.03096f
c72 94 0 0.0202983f
c73 92 0 0.0843175f
c74 89 0 0.0173588f
c75 84 0 0.0205995f
c76 82 0 0.115318f
c77 81 0 0.0204575f
c78 72 0 0.0334788f
c79 66 0 0.09982f
c80 65 0 0.0998175f
c81 64 0 0.09982f
c82 63 0 0.0998175f
c83 62 0 0.00496f
c84 61 0 0.0998175f
c85 60 0 0.0626175f
c86 57 0 0.03096f
c87 54 0 0.0644788f
c88 51 0 0.0111606f
c89 49 0 0.00248f
c90 47 0 0.03096f
c91 46 0 0.0260388f
c92 32 0 0.00269933f
c93 31 0 0.0141955f
c94 26 0 0.04488f
c95 25 0 0.201105f
c96 24 0 0.415118f
c97 20 0 0.03096f
c98 19 0 0.0533166f
c99 16 0 0.03096f
c100 15 0 0.134157f
c101 14 0 0.11524f
c102 12 0 0.134877f
c103 9 0 0.0378366f
c104 6 0 0.03096f
c105 5 0 0.0533166f
c106 4 0 0.05576f
c107 1 0 0.134157f
r108 141 143 0.0650172
r109 141 142 4.29
r110 136 137 4.29
r111 132 133 1.09105
r112 131 132 1.08667
r113 124 125 9.6
r114 119 120 9.6
r115 117 119 0.36
r116 114 115 9.6
r117 112 117 0.0446983
r118 112 114 0.52
r119 109 110 9.6
r120 107 147 0.149663
r121 107 109 0.423
r122 106 147 0.00478818
r123 105 106 0.27
r124 103 146 0.00478818
r125 103 104 0.52
r126 101 105 0.0446983
r127 101 102 0.23
r128 100 102 0.0446983
r129 99 100 0.62
r130 96 97 9.6
r131 94 146 0.139686
r132 94 96 0.207
r133 93 143 0.0173285
r134 92 99 0.0446983
r135 92 93 1.28
r136 90 172 7.36421
r137 89 90 10.4
r138 87 145 0.0338756
r139 87 89 0.24
r140 85 145 0.00880368
r141 83 139 0.0338756
r142 82 104 0.0446983
r143 82 83 1.78
r144 81 136 0.042243
r145 80 139 0.00880368
r146 80 81 0.33
r147 79 171 6.80984
r148 78 79 10.8
r149 75 171 6.80984
r150 74 78 0.2
r151 74 75 10.8
r152 72 145 0.0338756
r153 72 78 0.3
r154 65 66 1.61
r155 64 65 1.61
r156 63 64 1.61
r157 62 63 1.61
r158 61 139 0.0338756
r159 61 66 1.61
r160 60 62 0.0446983
r161 59 60 1.01
r162 56 57 9.6
r163 54 59 0.0446983
r164 54 56 1.02
r165 51 52 9.6
r166 49 51 0.36002
r167 46 47 9.6
r168 44 49 0.0446983
r169 44 46 0.52
r170 32 149 0.0212346
r171 32 131 1.08232
r172 32 149 0.0185
r173 32 124 0.1785
r174 31 84 0.0319439
r175 31 143 0.0465956
r176 31 85 0.2245
r177 31 84 0.0045
r178 25 142 0.043997
r179 25 26 0.18375
r180 24 26 0.039111
r181 23 137 0.042796
r182 23 24 0.7175
r183 20 120 7.5254
r184 20 22 34.65
r185 19 125 7.5254
r186 19 22 84.7
r187 16 110 7.5254
r188 16 18 177.1
r189 15 115 7.5254
r190 15 18 123.2
r191 12 14 257.95
r192 9 97 7.5254
r193 9 14 84.7
r194 6 52 7.52412
r195 6 8 34.65
r196 5 57 7.5254
r197 5 8 84.7
r198 1 47 7.52669
r199 1 4 123.2
.ends

.subckt PM_CARRY_SKIP_ADDER%A2N 1 4 5 6 8 9 12 14 15 16 18 19 20 22 24 31 46 47
+ 49 51 54 57 60 72 89 94 97 100 104 106 107 109 114 115 117 119 131 132 133 145
+ 171 172
c53 149 0 0.00849276f
c54 145 0 0.00496f
c55 139 0 0.00496f
c56 137 0 0.07965f
c57 136 0 0.01023f
c58 133 0 0.0693768f
c59 132 0 0.066898f
c60 131 0 0.0668955f
c61 125 0 0.03096f
c62 119 0 0.0111606f
c63 117 0 0.00248f
c64 115 0 0.03096f
c65 114 0 0.0260388f
c66 109 0 0.0225048f
c67 107 0 0.0118087f
c68 106 0 0.0167375f
c69 104 0 0.0322375f
c70 102 0 0.00496f
c71 101 0 0.0192175f
c72 100 0 0.0384375f
c73 97 0 0.03096f
c74 94 0 0.0202983f
c75 92 0 0.0843175f
c76 89 0 0.0173588f
c77 84 0 0.0205995f
c78 82 0 0.115318f
c79 81 0 0.0204575f
c80 72 0 0.0334788f
c81 66 0 0.09982f
c82 65 0 0.0998175f
c83 64 0 0.09982f
c84 63 0 0.0998175f
c85 62 0 0.00496f
c86 61 0 0.0998175f
c87 60 0 0.0626175f
c88 57 0 0.03096f
c89 54 0 0.0644788f
c90 51 0 0.0111606f
c91 49 0 0.00248f
c92 47 0 0.03096f
c93 46 0 0.0260388f
c94 32 0 0.00269933f
c95 31 0 0.0141955f
c96 26 0 0.04488f
c97 25 0 0.201105f
c98 24 0 0.415118f
c99 20 0 0.03096f
c100 19 0 0.0533166f
c101 16 0 0.03096f
c102 15 0 0.134157f
c103 14 0 0.11524f
c104 12 0 0.134877f
c105 9 0 0.0378366f
c106 6 0 0.03096f
c107 5 0 0.0533166f
c108 4 0 0.05576f
c109 1 0 0.134157f
r110 141 143 0.0650027
r111 141 142 4.29
r112 136 137 4.29
r113 132 133 1.0877
r114 131 132 1.08333
r115 124 125 9.6
r116 119 120 9.6
r117 117 119 0.36
r118 114 115 9.6
r119 112 117 0.0446983
r120 112 114 0.51998
r121 109 110 9.6
r122 107 147 0.149663
r123 107 109 0.423
r124 106 147 0.00478818
r125 105 106 0.27
r126 103 146 0.00478818
r127 103 104 0.52
r128 101 105 0.0446983
r129 101 102 0.23
r130 100 102 0.0446983
r131 99 100 0.62
r132 96 97 9.6
r133 94 146 0.139686
r134 94 96 0.207
r135 93 143 0.0173285
r136 92 99 0.0446983
r137 92 93 1.28
r138 90 172 7.36311
r139 89 90 10.4
r140 87 145 0.0338756
r141 87 89 0.24
r142 85 145 0.00880368
r143 83 139 0.0338756
r144 82 104 0.0446983
r145 82 83 1.78
r146 81 136 0.0422564
r147 80 139 0.00880368
r148 80 81 0.33
r149 79 171 6.8089
r150 78 79 10.8
r151 75 171 6.8089
r152 74 78 0.2
r153 74 75 10.8
r154 72 145 0.0338756
r155 72 78 0.3
r156 65 66 1.61
r157 64 65 1.61
r158 63 64 1.61
r159 62 63 1.61
r160 61 139 0.0338756
r161 61 66 1.61
r162 60 62 0.0446983
r163 59 60 1.01
r164 56 57 9.6
r165 54 59 0.0446983
r166 54 56 1.02
r167 51 52 9.6
r168 49 51 0.36002
r169 46 47 9.6
r170 44 49 0.0446983
r171 44 46 0.51998
r172 32 149 0.0212346
r173 32 131 1.079
r174 32 149 0.0185
r175 32 124 0.1785
r176 31 84 0.0319439
r177 31 143 0.0465956
r178 31 85 0.2245
r179 31 84 0.0045
r180 25 142 0.043997
r181 25 26 0.18375
r182 24 26 0.039111
r183 23 137 0.0427843
r184 23 24 0.7175
r185 20 120 7.5254
r186 20 22 34.65
r187 19 125 7.5254
r188 19 22 84.7
r189 16 110 7.5254
r190 16 18 177.1
r191 15 115 7.5254
r192 15 18 123.2
r193 12 14 257.95
r194 9 97 7.5254
r195 9 14 84.7
r196 6 52 7.52412
r197 6 8 34.65
r198 5 57 7.5254
r199 5 8 84.7
r200 1 47 7.52669
r201 1 4 123.2
.ends

.subckt PM_CARRY_SKIP_ADDER%VDD 1 2 3 4 5 6 7 8 9 10 11 12 13 14 15 16 17 18 19
+ 20 93 94 95 96 97 98 99 100 102 106 110 113 115 116 117 119 120 121 123 124
+ 125 127 128 130 131 132 134 135 136 138 139 140 142 143 144 145 147 149 151
+ 175 194 203 212 221 222 238 241 257 260 276 279 295 298 300 310 312 322 324
+ 334 336 357 362 367 372 374 376 384 387 389 397 400 402 410 413 415 423 486
+ 488 498 500 510 512 522 524 550 559 568 577 578 586 594 597 605 613 616 624
+ 632 635 643 651 654 666 678 690 715 718 724 727 733 736 742 745 746 754 762
+ 765 773 781 784 792 800 803 811 819 822 824 834 836 846 848 858 860 931 944
+ 957 969 1030 1032 1034 1036 1065 1066 1067 1068 1069 1070 1072 1081 1082 1083
+ 1084 1085 1086 1087 1088 1089 1090 1091 1092 1093 1094 1096 1097 1099 1100
+ 1102 1103 1105 1106 1107 1108 1109 1110 1111 1112 1113 1114 1115 1116 1117
+ 1118 1119 1120 1121 1122 1123 1124 1125 1126 1127 1128 1129 1130 1131 1132
+ 1133 1134 1135 1136 1137 1138 1139 1140 1325 1328 1331 1334 1346 1347 1349
+ 1350 1352 1353 1355 1356
c458 1356 0 1.02446f
c459 1355 0 0.698806f
c460 1353 0 1.02446f
c461 1352 0 0.698806f
c462 1350 0 1.02446f
c463 1349 0 0.698806f
c464 1347 0 1.02446f
c465 1346 0 0.698806f
c466 1334 0 2.51458f
c467 1331 0 2.51458f
c468 1328 0 2.51458f
c469 1325 0 2.51458f
c470 1072 0 0.00496f
c471 1071 0 0.0173588f
c472 1070 0 0.00496f
c473 1069 0 0.0173588f
c474 1068 0 0.00496f
c475 1067 0 0.0173588f
c476 1066 0 0.00496f
c477 1065 0 0.0173588f
c478 1064 0 0.00775f
c479 1059 0 0.00775f
c480 1054 0 0.00775f
c481 1049 0 0.00775f
c482 1036 0 0.00496f
c483 1035 0 0.0173588f
c484 1034 0 0.00496f
c485 1033 0 0.0173588f
c486 1032 0 0.00496f
c487 1031 0 0.0173588f
c488 1030 0 0.00496f
c489 1029 0 0.0173588f
c490 1028 0 0.00775f
c491 1023 0 0.00775f
c492 1018 0 0.00775f
c493 1013 0 0.00775f
c494 1000 0 0.00775f
c495 995 0 0.00775f
c496 990 0 0.00775f
c497 985 0 0.00775f
c498 969 0 0.06076f
c499 957 0 0.06076f
c500 944 0 0.06076f
c501 931 0 0.06076f
c502 929 0 0.00496f
c503 928 0 0.00496f
c504 927 0 0.00496f
c505 926 0 0.00496f
c506 925 0 0.00775f
c507 920 0 0.00775f
c508 915 0 0.00775f
c509 910 0 0.00775f
c510 897 0 0.00496f
c511 896 0 0.0173588f
c512 895 0 0.00496f
c513 894 0 0.0173588f
c514 893 0 0.00496f
c515 892 0 0.0173588f
c516 891 0 0.00496f
c517 890 0 0.0173588f
c518 889 0 0.00775f
c519 884 0 0.00775f
c520 879 0 0.00775f
c521 874 0 0.00775f
c522 860 0 0.117176f
c523 858 0 0.01736f
c524 848 0 0.117176f
c525 846 0 0.01736f
c526 836 0 0.117176f
c527 834 0 0.01736f
c528 824 0 0.117176f
c529 822 0 0.01736f
c530 819 0 0.0644788f
c531 811 0 0.0062f
c532 803 0 0.0471175f
c533 800 0 0.0644788f
c534 792 0 0.0062f
c535 784 0 0.0471175f
c536 781 0 0.0644788f
c537 773 0 0.0062f
c538 765 0 0.0471175f
c539 762 0 0.0644788f
c540 754 0 0.0062f
c541 746 0 0.0471175f
c542 745 0 0.0545575f
c543 742 0 0.0223175f
c544 736 0 0.0545575f
c545 733 0 0.0223175f
c546 727 0 0.0545575f
c547 724 0 0.0223175f
c548 718 0 0.0545575f
c549 715 0 0.0223175f
c550 708 0 0.0359575f
c551 706 0 0.0359575f
c552 704 0 0.0359575f
c553 702 0 0.0359575f
c554 692 0 0.117176f
c555 690 0 0.01736f
c556 680 0 0.117176f
c557 678 0 0.01736f
c558 668 0 0.117176f
c559 666 0 0.01736f
c560 656 0 0.117176f
c561 654 0 0.01736f
c562 651 0 0.0644788f
c563 643 0 0.0062f
c564 635 0 0.0471175f
c565 632 0 0.0644788f
c566 624 0 0.0062f
c567 616 0 0.0471175f
c568 613 0 0.0644788f
c569 605 0 0.0062f
c570 597 0 0.0471175f
c571 594 0 0.0644788f
c572 586 0 0.0062f
c573 578 0 0.0471175f
c574 577 0 0.0545575f
c575 574 0 0.0223175f
c576 568 0 0.0545575f
c577 565 0 0.0223175f
c578 559 0 0.0545575f
c579 556 0 0.0223175f
c580 550 0 0.0545575f
c581 547 0 0.0223175f
c582 540 0 0.0359575f
c583 538 0 0.0359575f
c584 536 0 0.0359575f
c585 534 0 0.0359575f
c586 524 0 0.117176f
c587 522 0 0.01736f
c588 512 0 0.117176f
c589 510 0 0.01736f
c590 500 0 0.117176f
c591 498 0 0.01736f
c592 488 0 0.117176f
c593 486 0 0.01736f
c594 479 0 0.00496f
c595 478 0 0.0322375f
c596 471 0 0.00496f
c597 470 0 0.0322375f
c598 463 0 0.00496f
c599 462 0 0.0322375f
c600 455 0 0.00496f
c601 454 0 0.0322375f
c602 452 0 0.0136375f
c603 447 0 0.0136375f
c604 442 0 0.0136375f
c605 437 0 0.0136375f
c606 432 0 0.0260375f
c607 430 0 0.0260375f
c608 428 0 0.0260375f
c609 426 0 0.0260375f
c610 423 0 0.0508388f
c611 415 0 0.00496f
c612 413 0 0.0322375f
c613 410 0 0.0508388f
c614 402 0 0.00496f
c615 400 0 0.0322375f
c616 397 0 0.0508388f
c617 389 0 0.00496f
c618 387 0 0.0322375f
c619 384 0 0.0508388f
c620 376 0 0.00496f
c621 374 0 0.0322375f
c622 372 0 0.0495975f
c623 367 0 0.0495975f
c624 362 0 0.0495975f
c625 357 0 0.0495975f
c626 352 0 0.0210775f
c627 350 0 0.0210775f
c628 348 0 0.0210775f
c629 346 0 0.0210775f
c630 336 0 0.117176f
c631 334 0 0.01736f
c632 324 0 0.117176f
c633 322 0 0.01736f
c634 312 0 0.117176f
c635 310 0 0.01736f
c636 300 0 0.117176f
c637 298 0 0.01736f
c638 295 0 0.0644788f
c639 287 0 0.0062f
c640 279 0 0.0471175f
c641 276 0 0.0644788f
c642 268 0 0.0062f
c643 260 0 0.0471175f
c644 257 0 0.0644788f
c645 249 0 0.0062f
c646 241 0 0.0471175f
c647 238 0 0.0644788f
c648 230 0 0.0062f
c649 222 0 0.0471175f
c650 221 0 0.0545575f
c651 218 0 0.0223175f
c652 212 0 0.0545575f
c653 209 0 0.0223175f
c654 203 0 0.0545575f
c655 200 0 0.0223175f
c656 194 0 0.0545575f
c657 191 0 0.0223175f
c658 184 0 0.0359575f
c659 182 0 0.0359575f
c660 180 0 0.0359575f
c661 178 0 0.0359575f
c662 177 0 0.0584858f
c663 176 0 0.0609646f
c664 168 0 0.0584858f
c665 151 0 1.28769f
c666 149 0 1.28769f
c667 147 0 1.28769f
c668 145 0 1.28769f
c669 144 0 0.680908f
c670 143 0 0.687573f
c671 142 0 0.738654f
c672 140 0 0.680908f
c673 139 0 0.687573f
c674 138 0 0.738654f
c675 136 0 0.680908f
c676 135 0 0.687573f
c677 134 0 0.738654f
c678 132 0 0.680908f
c679 131 0 0.687573f
c680 130 0 0.738654f
c681 128 0 0.783474f
c682 127 0 0.80624f
c683 126 0 2.25785f
c684 125 0 0.747847f
c685 124 0 0.783474f
c686 123 0 0.80624f
c687 122 0 4.83946f
c688 121 0 0.747847f
c689 120 0 0.783474f
c690 119 0 0.80624f
c691 118 0 3.08384f
c692 117 0 0.747847f
c693 116 0 0.783474f
c694 115 0 0.80624f
c695 114 0 2.60135f
c696 113 0 0.747847f
c697 112 0 1.08722f
c698 111 0 1.08717f
c699 110 0 0.991595f
c700 108 0 1.35802f
c701 107 0 1.35798f
c702 106 0 1.26242f
c703 104 0 1.08323f
c704 103 0 1.08318f
c705 102 0 0.987629f
c706 100 0 0.900811f
c707 99 0 0.900811f
c708 98 0 0.900811f
c709 97 0 0.900811f
c710 96 0 0.493476f
c711 95 0 0.493476f
c712 94 0 0.493476f
c713 93 0 0.493476f
r714 1080 1135 5.6957
r715 1079 1080 10.8
r716 1078 1133 5.6964
r717 1077 1078 10.8
r718 1076 1131 5.6957
r719 1075 1076 10.8
r720 1074 1129 5.6957
r721 1073 1074 10.8
r722 1061 1064 0.0434303
r723 1056 1059 0.0434303
r724 1051 1054 0.0434303
r725 1046 1049 0.0434303
r726 1044 1123 5.6957
r727 1043 1044 10.8
r728 1042 1121 5.6964
r729 1041 1042 10.8
r730 1040 1119 5.6957
r731 1039 1040 10.8
r732 1038 1117 5.6964
r733 1037 1038 10.8
r734 1026 1334 0.256226
r735 1025 1028 0.0434303
r736 1025 1026 4.29
r737 1021 1331 0.256226
r738 1020 1023 0.0434303
r739 1020 1021 4.29
r740 1016 1328 0.256226
r741 1015 1018 0.0434303
r742 1015 1016 4.29
r743 1011 1325 0.256226
r744 1010 1013 0.0434303
r745 1010 1011 4.29
r746 1008 1112 5.6957
r747 1007 1008 10.8
r748 1006 1111 5.6964
r749 1005 1006 10.8
r750 1004 1110 5.6957
r751 1003 1004 10.8
r752 1002 1109 5.6964
r753 1001 1002 10.8
r754 997 1000 0.0434303
r755 992 995 0.0434303
r756 987 990 0.0434303
r757 982 985 0.0434303
r758 976 979 10.4
r759 976 977 10.4
r760 973 1108 6.81078
r761 970 1108 6.81078
r762 969 976 0.0571371
r763 969 973 10.8
r764 969 970 10.8
r765 963 966 10.4
r766 963 964 10.4
r767 961 1107 6.80984
r768 958 1107 6.80984
r769 957 963 0.0571429
r770 957 961 10.8
r771 957 958 10.8
r772 951 954 10.4
r773 951 952 10.4
r774 948 1106 6.81078
r775 945 1106 6.81078
r776 944 951 0.0571371
r777 944 948 10.8
r778 944 945 10.8
r779 938 941 10.4
r780 938 939 10.4
r781 935 1105 6.81078
r782 932 1105 6.81078
r783 931 938 0.0571371
r784 931 935 10.8
r785 931 932 10.8
r786 922 925 0.0434303
r787 917 920 0.0434303
r788 912 915 0.0434303
r789 907 910 0.0434303
r790 905 1087 5.6957
r791 904 905 10.8
r792 903 1085 5.6964
r793 902 903 10.8
r794 901 1083 5.6957
r795 900 901 10.8
r796 899 1081 5.6957
r797 898 899 10.8
r798 866 869 10.4
r799 866 867 10.4
r800 864 1140 6.81078
r801 861 1140 6.81078
r802 860 866 0.0571429
r803 860 864 10.8
r804 860 861 10.8
r805 858 1079 0.0241735
r806 858 866 0.0857086
r807 854 857 10.4
r808 854 855 10.4
r809 852 1139 6.80984
r810 849 1139 6.80984
r811 848 854 0.0571429
r812 848 852 10.8
r813 848 849 10.8
r814 846 1077 0.0241726
r815 846 854 0.0857143
r816 842 845 10.4
r817 842 843 10.4
r818 840 1138 6.81078
r819 837 1138 6.81078
r820 836 842 0.0571429
r821 836 840 10.8
r822 836 837 10.8
r823 834 1075 0.0241735
r824 834 842 0.0857086
r825 830 833 10.4
r826 830 831 10.4
r827 828 1137 6.81078
r828 825 1137 6.81078
r829 824 830 0.0571429
r830 824 828 10.8
r831 824 825 10.8
r832 822 1073 0.0241735
r833 822 830 0.0857086
r834 820 1136 5.69711
r835 819 820 10.8
r836 817 1136 5.69711
r837 816 819 0.26
r838 816 817 10.8
r839 814 1136 5.69711
r840 813 816 0.26
r841 813 814 10.8
r842 811 813 0.48
r843 810 1135 5.6957
r844 809 810 10.8
r845 807 1135 5.6957
r846 806 809 0.26
r847 806 807 10.8
r848 804 1072 0.00880368
r849 804 806 0.48
r850 803 1079 0.0414378
r851 803 809 0.02
r852 801 1134 5.6964
r853 800 801 10.8
r854 798 1134 5.6964
r855 797 800 0.26
r856 797 798 10.8
r857 795 1134 5.6964
r858 794 797 0.26
r859 794 795 10.8
r860 792 794 0.48
r861 791 1133 5.6964
r862 790 791 10.8
r863 788 1133 5.6964
r864 787 790 0.26
r865 787 788 10.8
r866 785 1070 0.00880368
r867 785 787 0.48
r868 784 1077 0.0414387
r869 784 790 0.02
r870 782 1132 5.69711
r871 781 782 10.8
r872 779 1132 5.69711
r873 778 781 0.26
r874 778 779 10.8
r875 776 1132 5.69711
r876 775 778 0.26
r877 775 776 10.8
r878 773 775 0.48
r879 772 1131 5.6957
r880 771 772 10.8
r881 769 1131 5.6957
r882 768 771 0.26
r883 768 769 10.8
r884 766 1068 0.00880368
r885 766 768 0.48
r886 765 1075 0.0414378
r887 765 771 0.02
r888 763 1130 5.6964
r889 762 763 10.8
r890 760 1130 5.6964
r891 759 762 0.26
r892 759 760 10.8
r893 757 1130 5.6964
r894 756 759 0.26
r895 756 757 10.8
r896 754 756 0.48
r897 753 1129 5.6957
r898 752 753 10.8
r899 750 1129 5.6957
r900 749 752 0.26
r901 749 750 10.8
r902 747 1066 0.00880368
r903 747 749 0.48
r904 746 1073 0.0414378
r905 746 752 0.02
r906 745 811 0.0446983
r907 744 1072 0.0338756
r908 744 745 1.04
r909 742 743 2.6
r910 740 1072 0.0338756
r911 740 742 0.33998
r912 739 1071 0.0338756
r913 739 742 0.02002
r914 736 792 0.0446983
r915 735 1070 0.0338756
r916 735 736 1.04
r917 733 734 2.6
r918 731 1070 0.0338756
r919 731 733 0.34
r920 730 1069 0.0338756
r921 730 733 0.02
r922 727 773 0.0446983
r923 726 1068 0.0338756
r924 726 727 1.04
r925 724 725 2.6
r926 722 1068 0.0338756
r927 722 724 0.33998
r928 721 1067 0.0338756
r929 721 724 0.02002
r930 718 754 0.0446983
r931 717 1066 0.0338756
r932 717 718 1.04
r933 715 716 2.6
r934 713 1066 0.0338756
r935 713 715 0.33998
r936 712 1065 0.0338756
r937 712 715 0.02002
r938 708 1071 0.00880368
r939 708 1064 0.58
r940 706 1069 0.00880368
r941 706 1059 0.58
r942 704 1067 0.00880368