* File: four_bit_adder.pex.netlist.pex
* Created: Mon Dec 19 03:00:00 2022
* Program "Calibre xRC"
* Version "v2012.2_36.25"
* Nominal Temperature: 27C
* Circuit Temperature: 27C
* 
.subckt PM_FOUR_BIT_ADDER%X10/9 2 11 25 26 28 29
c3 22 0 0.0433988f
c4 14 0 0.00372f
c5 11 0 0.0433988f
c6 3 0 0.00372f
c7 2 0 0.0185981f
r8 19 22 0.26
r9 17 29 1.40625
r10 17 28 1.40625
r11 17 22 10.8
r12 17 19 10.8
r13 16 19 0.26
r14 16 17 10.8
r15 14 16 0.14
r16 8 11 0.26
r17 6 26 1.40625
r18 6 25 1.40625
r19 6 11 10.8
r20 6 8 10.8
r21 5 8 0.26
r22 5 6 10.8
r23 3 5 0.14
r24 2 14 0.0458951
r25 1 3 0.0458951
r26 1 2 0.64
.ends

.subckt PM_FOUR_BIT_ADDER%X10/10 1 2
r0 1 2 13.2
.ends

.subckt PM_FOUR_BIT_ADDER%X10/11 1 2
r0 1 2 13.2
.ends

.subckt PM_FOUR_BIT_ADDER%X11/X14/9 2 25 26 28 29
c2 22 0 0.0433988f
c3 14 0 0.00372f
c4 11 0 0.0433988f
c5 3 0 0.00372f
c6 2 0 0.0185981f
r7 19 22 0.26
r8 17 29 1.40625
r9 17 28 1.40625
r10 17 22 10.8
r11 17 19 10.8
r12 16 19 0.26
r13 16 17 10.8
r14 14 16 0.14
r15 8 11 0.26
r16 6 26 1.40625
r17 6 25 1.40625
r18 6 11 10.8
r19 6 8 10.8
r20 5 8 0.26
r21 5 6 10.8
r22 3 5 0.14
r23 2 14 0.0458951
r24 1 3 0.0458951
r25 1 2 0.64
.ends

.subckt PM_FOUR_BIT_ADDER%X11/X14/10 1 2
r0 1 2 13.2
.ends

.subckt PM_FOUR_BIT_ADDER%X11/X14/11 1 2
r0 1 2 13.2
.ends

.subckt PM_FOUR_BIT_ADDER%X11/X15/9 2 11 14 22 25 26 28 29
c7 22 0 0.0433988f
c8 14 0 0.00372f
c9 11 0 0.0433988f
c10 3 0 0.00372f
c11 2 0 0.0185981f
r12 19 22 0.26
r13 17 29 1.40625
r14 17 28 1.40625
r15 17 22 10.8
r16 17 19 10.8
r17 16 19 0.26
r18 16 17 10.8
r19 14 16 0.14
r20 8 11 0.26
r21 6 26 1.40625
r22 6 25 1.40625
r23 6 11 10.8
r24 6 8 10.8
r25 5 8 0.26
r26 5 6 10.8
r27 3 5 0.14
r28 2 14 0.0458951
r29 1 3 0.0458951
r30 1 2 0.64
.ends

.subckt PM_FOUR_BIT_ADDER%X11/X15/10 1 2
r0 1 2 13.2
.ends

.subckt PM_FOUR_BIT_ADDER%X11/X15/11 1 2
r0 1 2 13.2
.ends

.subckt PM_FOUR_BIT_ADDER%X11/X16/9 2 25 26 28 29
c2 22 0 0.0433988f
c3 14 0 0.00372f
c4 11 0 0.0433988f
c5 3 0 0.00372f
c6 2 0 0.0185981f
r7 19 22 0.26
r8 17 29 1.40625
r9 17 28 1.40625
r10 17 22 10.8
r11 17 19 10.8
r12 16 19 0.26
r13 16 17 10.8
r14 14 16 0.14
r15 8 11 0.26
r16 6 26 1.40625
r17 6 25 1.40625
r18 6 11 10.8
r19 6 8 10.8
r20 5 8 0.26
r21 5 6 10.8
r22 3 5 0.14
r23 2 14 0.0458951
r24 1 3 0.0458951
r25 1 2 0.64
.ends

.subckt PM_FOUR_BIT_ADDER%X11/X16/10 1 2
r0 1 2 13.2
.ends

.subckt PM_FOUR_BIT_ADDER%X11/X16/11 1 2
r0 1 2 13.2
.ends

.subckt PM_FOUR_BIT_ADDER%X12/X14/9 2 25 26 28 29
c2 22 0 0.0433988f
c3 14 0 0.00372f
c4 11 0 0.0433988f
c5 3 0 0.00372f
c6 2 0 0.0185981f
r7 19 22 0.26
r8 17 29 1.40625
r9 17 28 1.40625
r10 17 22 10.8
r11 17 19 10.8
r12 16 19 0.26
r13 16 17 10.8
r14 14 16 0.14
r15 8 11 0.26
r16 6 26 1.40625
r17 6 25 1.40625
r18 6 11 10.8
r19 6 8 10.8
r20 5 8 0.26
r21 5 6 10.8
r22 3 5 0.14
r23 2 14 0.0458951
r24 1 3 0.0458951
r25 1 2 0.64
.ends

.subckt PM_FOUR_BIT_ADDER%X12/X14/10 1 2
r0 1 2 13.2
.ends

.subckt PM_FOUR_BIT_ADDER%X12/X14/11 1 2
r0 1 2 13.2
.ends

.subckt PM_FOUR_BIT_ADDER%X12/X15/9 2 11 14 22 25 26 28 29
c7 22 0 0.0433988f
c8 14 0 0.00372f
c9 11 0 0.0433988f
c10 3 0 0.00372f
c11 2 0 0.0185981f
r12 19 22 0.26
r13 17 29 1.40625
r14 17 28 1.40625
r15 17 22 10.8
r16 17 19 10.8
r17 16 19 0.26
r18 16 17 10.8
r19 14 16 0.14
r20 8 11 0.26
r21 6 26 1.40625
r22 6 25 1.40625
r23 6 11 10.8
r24 6 8 10.8
r25 5 8 0.26
r26 5 6 10.8
r27 3 5 0.14
r28 2 14 0.0458951
r29 1 3 0.0458951
r30 1 2 0.64
.ends

.subckt PM_FOUR_BIT_ADDER%X12/X15/10 1 2
r0 1 2 13.2
.ends

.subckt PM_FOUR_BIT_ADDER%X12/X15/11 1 2
r0 1 2 13.2
.ends

.subckt PM_FOUR_BIT_ADDER%X12/X16/9 2 25 26 28 29
c2 22 0 0.0433988f
c3 14 0 0.00372f
c4 11 0 0.0433988f
c5 3 0 0.00372f
c6 2 0 0.0185981f
r7 19 22 0.26
r8 17 29 1.40625
r9 17 28 1.40625
r10 17 22 10.8
r11 17 19 10.8
r12 16 19 0.26
r13 16 17 10.8
r14 14 16 0.14
r15 8 11 0.26
r16 6 26 1.40625
r17 6 25 1.40625
r18 6 11 10.8
r19 6 8 10.8
r20 5 8 0.26
r21 5 6 10.8
r22 3 5 0.14
r23 2 14 0.0458951
r24 1 3 0.0458951
r25 1 2 0.64
.ends

.subckt PM_FOUR_BIT_ADDER%X12/X16/10 1 2
r0 1 2 13.2
.ends

.subckt PM_FOUR_BIT_ADDER%X12/X16/11 1 2
r0 1 2 13.2
.ends

.subckt PM_FOUR_BIT_ADDER%X13/X14/9 2 25 26 28 29
c2 22 0 0.0433988f
c3 14 0 0.00372f
c4 11 0 0.0433988f
c5 3 0 0.00372f
c6 2 0 0.0185981f
r7 19 22 0.26
r8 17 29 1.40625
r9 17 28 1.40625
r10 17 22 10.8
r11 17 19 10.8
r12 16 19 0.26
r13 16 17 10.8
r14 14 16 0.14
r15 8 11 0.26
r16 6 26 1.40625
r17 6 25 1.40625
r18 6 11 10.8
r19 6 8 10.8
r20 5 8 0.26
r21 5 6 10.8
r22 3 5 0.14
r23 2 14 0.0458951
r24 1 3 0.0458951
r25 1 2 0.64
.ends

.subckt PM_FOUR_BIT_ADDER%X13/X14/10 1 2
r0 1 2 13.2
.ends

.subckt PM_FOUR_BIT_ADDER%X13/X14/11 1 2
r0 1 2 13.2
.ends

.subckt PM_FOUR_BIT_ADDER%X13/X15/9 2 11 14 22 25 26 28 29
c7 22 0 0.0433988f
c8 14 0 0.00372f
c9 11 0 0.0433988f
c10 3 0 0.00372f
c11 2 0 0.0185981f
r12 19 22 0.26
r13 17 29 1.40625
r14 17 28 1.40625
r15 17 22 10.8
r16 17 19 10.8
r17 16 19 0.26
r18 16 17 10.8
r19 14 16 0.14
r20 8 11 0.26
r21 6 26 1.40625
r22 6 25 1.40625
r23 6 11 10.8
r24 6 8 10.8
r25 5 8 0.26
r26 5 6 10.8
r27 3 5 0.14
r28 2 14 0.0458951
r29 1 3 0.0458951
r30 1 2 0.64
.ends

.subckt PM_FOUR_BIT_ADDER%X13/X15/10 1 2
r0 1 2 13.2
.ends

.subckt PM_FOUR_BIT_ADDER%X13/X15/11 1 2
r0 1 2 13.2
.ends

.subckt PM_FOUR_BIT_ADDER%X13/X16/9 2 25 26 28 29
c2 22 0 0.0433988f
c3 14 0 0.00372f
c4 11 0 0.0433988f
c5 3 0 0.00372f
c6 2 0 0.0185981f
r7 19 22 0.26
r8 17 29 1.40625
r9 17 28 1.40625
r10 17 22 10.8
r11 17 19 10.8
r12 16 19 0.26
r13 16 17 10.8
r14 14 16 0.14
r15 8 11 0.26
r16 6 26 1.40625
r17 6 25 1.40625
r18 6 11 10.8
r19 6 8 10.8
r20 5 8 0.26
r21 5 6 10.8
r22 3 5 0.14
r23 2 14 0.0458951
r24 1 3 0.0458951
r25 1 2 0.64
.ends

.subckt PM_FOUR_BIT_ADDER%X13/X16/10 1 2
r0 1 2 13.2
.ends

.subckt PM_FOUR_BIT_ADDER%X13/X16/11 1 2
r0 1 2 13.2
.ends

.subckt PM_FOUR_BIT_ADDER%X14/X14/9 2 25 26 28 29
c2 22 0 0.0433988f
c3 14 0 0.00372f
c4 11 0 0.0433988f
c5 3 0 0.00372f
c6 2 0 0.0185981f
r7 19 22 0.26
r8 17 29 1.40625
r9 17 28 1.40625
r10 17 22 10.8
r11 17 19 10.8
r12 16 19 0.26
r13 16 17 10.8
r14 14 16 0.14
r15 8 11 0.26
r16 6 26 1.40625
r17 6 25 1.40625
r18 6 11 10.8
r19 6 8 10.8
r20 5 8 0.26
r21 5 6 10.8
r22 3 5 0.14
r23 2 14 0.0458951
r24 1 3 0.0458951
r25 1 2 0.64
.ends

.subckt PM_FOUR_BIT_ADDER%X14/X14/10 1 2
r0 1 2 13.2
.ends

.subckt PM_FOUR_BIT_ADDER%X14/X14/11 1 2
r0 1 2 13.2
.ends

.subckt PM_FOUR_BIT_ADDER%X14/X15/9 2 11 14 22 25 26 28 29
c7 22 0 0.0433988f
c8 14 0 0.00372f
c9 11 0 0.0433988f
c10 3 0 0.00372f
c11 2 0 0.0185981f
r12 19 22 0.26
r13 17 29 1.40625
r14 17 28 1.40625
r15 17 22 10.8
r16 17 19 10.8
r17 16 19 0.26
r18 16 17 10.8
r19 14 16 0.14
r20 8 11 0.26
r21 6 26 1.40625
r22 6 25 1.40625
r23 6 11 10.8
r24 6 8 10.8
r25 5 8 0.26
r26 5 6 10.8
r27 3 5 0.14
r28 2 14 0.0458951
r29 1 3 0.0458951
r30 1 2 0.64
.ends

.subckt PM_FOUR_BIT_ADDER%X14/X15/10 1 2
r0 1 2 13.2
.ends

.subckt PM_FOUR_BIT_ADDER%X14/X15/11 1 2
r0 1 2 13.2
.ends

.subckt PM_FOUR_BIT_ADDER%X14/X16/9 2 25 26 28 29
c2 22 0 0.0433988f
c3 14 0 0.00372f
c4 11 0 0.0433988f
c5 3 0 0.00372f
c6 2 0 0.0185981f
r7 19 22 0.26
r8 17 29 1.40625
r9 17 28 1.40625
r10 17 22 10.8
r11 17 19 10.8
r12 16 19 0.26
r13 16 17 10.8
r14 14 16 0.14
r15 8 11 0.26
r16 6 26 1.40625
r17 6 25 1.40625
r18 6 11 10.8
r19 6 8 10.8
r20 5 8 0.26
r21 5 6 10.8
r22 3 5 0.14
r23 2 14 0.0458951
r24 1 3 0.0458951
r25 1 2 0.64
.ends

.subckt PM_FOUR_BIT_ADDER%X14/X16/10 1 2
r0 1 2 13.2
.ends

.subckt PM_FOUR_BIT_ADDER%X14/X16/11 1 2
r0 1 2 13.2
.ends

.subckt PM_FOUR_BIT_ADDER%X11/13 1 4 6 7 8 10 13 20 36 45 58 62 70 80 81 82
c18 72 0 0.00496f
c19 70 0 0.01178f
c20 65 0 0.0247988f
c21 62 0 0.00991752f
c22 58 0 0.0508388f
c23 45 0 0.0557988f
c24 38 0 0.00496f
c25 37 0 0.113458f
c26 36 0 0.0905175f
c27 34 0 0.00433752f
c28 30 0 0.03096f
c29 27 0 0.0334788f
c30 20 0 0.0458788f
c31 13 0 0.0206383f
c32 11 0 0.03096f
c33 8 0 0.03096f
c34 7 0 0.0636366f
c35 6 0 0.07912f
c36 4 0 0.106717f
c37 1 0 0.0326766f
r38 68 70 0.11
r39 66 82 6.6
r40 66 81 6.6
r41 65 66 10.4
r42 63 72 0.00880368
r43 63 65 0.36
r44 61 72 0.0338756
r45 61 62 0.2
r46 58 59 9.6
r47 56 72 0.0338756
r48 56 58 0.92
r49 55 80 5.6964
r50 54 55 10.8
r51 52 80 5.6964
r52 51 54 0.26
r53 51 52 10.8
r54 48 80 5.6964
r55 47 51 0.26
r56 47 48 10.8
r57 45 62 0.0446983
r58 45 54 0.26
r59 42 43 9.6
r60 37 39 0.0446983
r61 37 38 1.75
r62 36 70 0.0046983
r63 35 38 0.0446983
r64 35 36 1.46
r65 33 68 0.0046983
r66 33 34 0.07
r67 29 30 9.6
r68 27 34 0.0446983
r69 20 42 0.44
r70 20 39 0.36
r71 19 27 0.2
r72 19 29 0.31998
r73 11 59 7.5254
r74 11 13 23.1
r75 8 43 7.5254
r76 8 10 77
r77 7 59 7.5254
r78 7 10 65.45
r79 4 6 177.1
r80 1 30 7.52669
r81 1 6 73.15
.ends

.subckt PM_FOUR_BIT_ADDER%X11/14 4 7 17 34 36 55 56 57
c7 51 0 0.00496f
c8 49 0 0.00992f
c9 44 0 0.0185988f
c10 42 0 0.00496f
c11 39 0 0.0185988f
c12 36 0 0.0396775f
c13 34 0 0.0161175f
c14 30 0 0.0185988f
c15 17 0 0.0545588f
c16 7 0 0.0326783f
c17 5 0 0.03096f
c18 4 0 0.057f
c19 1 0 0.0584766f
r20 47 49 0.08
r21 45 57 7.36421
r22 44 45 10.4
r23 42 44 0.26002
r24 40 56 7.36421
r25 39 40 10.4
r26 37 51 0.02
r27 37 39 0.26002
r28 36 42 0.0446983
r29 35 51 0.02
r30 35 36 0.76
r31 34 51 0.02
r32 33 49 0.0046983
r33 33 34 0.26
r34 30 31 9.6
r35 28 47 0.0046983
r36 28 30 0.36
r37 27 55 5.6964
r38 26 27 10.8
r39 24 55 5.6964
r40 23 26 0.26
r41 23 24 10.8
r42 20 55 5.6964
r43 19 23 0.26
r44 19 20 10.8
r45 17 51 0.02
r46 17 26 0.31998
r47 5 31 7.52412
r48 5 7 50.05
r49 1 31 7.52669
r50 1 4 65.45
.ends

.subckt PM_FOUR_BIT_ADDER%X11/15 1 24 25 26 28
c3 24 0 0.0247975f
c4 12 0 0.0471188f
c5 1 0 0.0471188f
r6 23 24 0.48
r7 22 28 5.6964
r8 21 22 10.8
r9 19 28 5.6964
r10 18 21 0.26
r11 18 19 10.8
r12 15 28 5.6964
r13 14 18 0.26
r14 14 15 10.8
r15 12 24 0.0446983
r16 12 21 0.11998
r17 7 10 0.26
r18 4 26 1.40625
r19 4 25 1.40625
r20 4 10 10.8
r21 4 7 10.8
r22 3 7 0.26
r23 3 4 10.8
r24 1 23 0.0446983
r25 1 10 0.11998
.ends

.subckt PM_FOUR_BIT_ADDER%X11/16 1 4 8 15 18 20 42 47 52 53 54 76 77
c12 75 0 0.00496f
c13 72 0 0.0173588f
c14 59 0 0.0334788f
c15 58 0 0.0434f
c16 57 0 0.0433975f
c17 56 0 0.00496f
c18 55 0 0.0483575f
c19 54 0 0.04216f
c20 53 0 0.0421575f
c21 52 0 0.0421575f
c22 47 0 0.0681988f
c23 42 0 0.0297575f
c24 24 0 0.03096f
c25 20 0 0.0111606f
c26 18 0 0.00248f
c27 16 0 0.03096f
c28 15 0 0.0260388f
c29 6 0 0.03096f
c30 5 0 0.0533166f
c31 4 0 0.05576f
c32 1 0 0.134157f
r33 73 77 7.36421
r34 72 73 10.4
r35 70 75 0.0338756
r36 70 72 0.24002
r37 68 75 0.00880368
r38 66 76 6.80984
r39 65 66 10.8
r40 62 76 6.80984
r41 61 65 0.2
r42 61 62 10.8
r43 59 75 0.0338756
r44 59 65 0.29998
r45 57 58 0.7
r46 56 57 0.7
r47 55 67 0.0446983
r48 55 58 0.7
r49 53 54 0.68
r50 52 54 0.68
r51 51 56 0.0446983
r52 51 53 0.68
r53 47 52 0.0446983
r54 42 68 0.26
r55 42 67 0.22
r56 41 47 0.88
r57 23 41 0.2
r58 23 24 9.6
r59 20 21 9.6
r60 18 20 0.36
r61 15 16 9.6
r62 13 18 0.0446983
r63 13 15 0.52
r64 6 21 7.5254
r65 6 8 34.65
r66 5 24 7.5254
r67 5 8 84.7
r68 1 16 7.5254
r69 1 4 123.2
.ends

.subckt PM_FOUR_BIT_ADDER%X11/17 1 4 7 10 30 32 47 48 51 59 60 61 62
c16 60 0 0.00496f
c17 59 0 0.100438f
c18 54 0 0.0433988f
c19 51 0 0.0111588f
c20 48 0 0.081964f
c21 47 0 0.0819615f
c22 46 0 0.081964f
c23 45 0 0.0819615f
c24 44 0 0.00496f
c25 43 0 0.0869215f
c26 32 0 0.0309988f
c27 30 0 0.0452575f
c28 21 0 0.03096f
c29 8 0 0.00344f
c30 7 0 0.0791166f
c31 6 0 0.0206366f
c32 4 0 0.05576f
c33 1 0 0.153077f
r34 58 59 1.62
r35 54 59 0.0446983
r36 52 62 7.36421
r37 51 52 10.4
r38 49 60 0.0338756
r39 49 51 0.14
r40 47 48 1.322
r41 46 47 1.322
r42 45 46 1.322
r43 44 45 1.322
r44 43 58 0.0446983
r45 43 48 1.322
r46 41 60 0.00880368
r47 40 44 0.0446983
r48 39 61 6.80984
r49 38 39 10.8
r50 35 61 6.80984
r51 34 38 0.2
r52 34 35 10.8
r53 32 60 0.0338756
r54 32 38 0.26
r55 31 54 0.48
r56 30 41 0.26
r57 30 40 0.47
r58 20 31 0.2
r59 20 21 9.6
r60 8 10 92.4
r61 7 21 7.5254
r62 7 10 84.7
r63 5 8 4.30221
r64 5 6 46.2
r65 1 6 4.30221
r66 1 4 157.85
.ends

.subckt PM_FOUR_BIT_ADDER%X11/18 4 7 25 29 31 47 48 50 51
c5 43 0 0.00496f
c6 42 0 0.00496f
c7 39 0 0.0483588f
c8 37 0 0.00496f
c9 34 0 0.0483588f
c10 31 0 0.0247975f
c11 29 0 0.0247975f
c12 25 0 0.0359588f
c13 10 0 0.0508388f
c14 7 0 0.0326783f
c15 5 0 0.03096f
c16 4 0 0.057f
c17 1 0 0.0584766f
r18 40 51 7.36421
r19 39 40 10.4
r20 37 39 0.74
r21 35 50 7.36421
r22 34 35 10.4
r23 32 42 0.00880368
r24 32 34 0.74
r25 31 37 0.0446983
r26 30 43 0.0338756
r27 30 31 0.48
r28 29 43 0.0338756
r29 28 42 0.0338756
r30 28 29 0.48
r31 25 26 9.6
r32 23 42 0.0338756
r33 23 25 0.63998
r34 16 19 0.26
r35 13 48 1.40625
r36 13 47 1.40625
r37 13 19 10.8
r38 13 16 10.8
r39 12 16 0.26
r40 12 13 10.8
r41 10 43 0.00880368
r42 10 19 0.26
r43 5 26 7.5254
r44 5 7 50.05
r45 1 26 7.5254
r46 1 4 65.45
.ends

.subckt PM_FOUR_BIT_ADDER%X11/19 4 7 25 29 31 47 48 50 51
c5 43 0 0.00496f
c6 42 0 0.00496f
c7 39 0 0.0483588f
c8 37 0 0.00496f
c9 34 0 0.0483588f
c10 31 0 0.0247975f
c11 29 0 0.0247975f
c12 25 0 0.0359588f
c13 10 0 0.0508388f
c14 7 0 0.0326783f
c15 5 0 0.03096f
c16 4 0 0.057f
c17 1 0 0.0584766f
r18 40 51 7.36421
r19 39 40 10.4
r20 37 39 0.74
r21 35 50 7.36421
r22 34 35 10.4
r23 32 42 0.00880368
r24 32 34 0.74
r25 31 37 0.0446983
r26 30 43 0.0338756
r27 30 31 0.48
r28 29 43 0.0338756
r29 28 42 0.0338756
r30 28 29 0.48
r31 25 26 9.6
r32 23 42 0.0338756
r33 23 25 0.63998
r34 16 19 0.26
r35 13 48 1.40625
r36 13 47 1.40625
r37 13 19 10.8
r38 13 16 10.8
r39 12 16 0.26
r40 12 13 10.8
r41 10 43 0.00880368
r42 10 19 0.26
r43 5 26 7.5254
r44 5 7 50.05
r45 1 26 7.5254
r46 1 4 65.45
.ends

.subckt PM_FOUR_BIT_ADDER%X11/20 1 2
r0 1 2 13.2
.ends

.subckt PM_FOUR_BIT_ADDER%X11/21 1 2
r0 1 2 2.8125
.ends

.subckt PM_FOUR_BIT_ADDER%X12/13 1 4 6 7 8 10 13 20 36 45 58 62 70 80 81 82
c18 72 0 0.00496f
c19 70 0 0.01178f
c20 65 0 0.0247988f
c21 62 0 0.00991752f
c22 58 0 0.0508388f
c23 45 0 0.0557988f
c24 38 0 0.00496f
c25 37 0 0.113458f
c26 36 0 0.0905175f
c27 34 0 0.00433752f
c28 30 0 0.03096f
c29 27 0 0.0334788f
c30 20 0 0.0458788f
c31 13 0 0.0206383f
c32 11 0 0.03096f
c33 8 0 0.03096f
c34 7 0 0.0636366f
c35 6 0 0.07912f
c36 4 0 0.106717f
c37 1 0 0.0326766f
r38 68 70 0.11
r39 66 82 6.6
r40 66 81 6.6
r41 65 66 10.4
r42 63 72 0.00880368
r43 63 65 0.36
r44 61 72 0.0338756
r45 61 62 0.2
r46 58 59 9.6
r47 56 72 0.0338756
r48 56 58 0.92
r49 55 80 5.6964
r50 54 55 10.8
r51 52 80 5.6964
r52 51 54 0.26
r53 51 52 10.8
r54 48 80 5.6964
r55 47 51 0.26
r56 47 48 10.8
r57 45 62 0.0446983
r58 45 54 0.26
r59 42 43 9.6
r60 37 39 0.0446983
r61 37 38 1.75
r62 36 70 0.0046983
r63 35 38 0.0446983
r64 35 36 1.46
r65 33 68 0.0046983
r66 33 34 0.07
r67 29 30 9.6
r68 27 34 0.0446983
r69 20 42 0.44
r70 20 39 0.36
r71 19 27 0.2
r72 19 29 0.31998
r73 11 59 7.5254
r74 11 13 23.1
r75 8 43 7.5254
r76 8 10 77
r77 7 59 7.5254
r78 7 10 65.45
r79 4 6 177.1
r80 1 30 7.52669
r81 1 6 73.15
.ends

.subckt PM_FOUR_BIT_ADDER%X12/14 4 7 17 34 36 55 56 57
c7 51 0 0.00496f
c8 49 0 0.00992f
c9 44 0 0.0185988f
c10 42 0 0.00496f
c11 39 0 0.0185988f
c12 36 0 0.0396775f
c13 34 0 0.0161175f
c14 30 0 0.0185988f
c15 17 0 0.0545588f
c16 7 0 0.0326783f
c17 5 0 0.03096f
c18 4 0 0.057f
c19 1 0 0.0584766f
r20 47 49 0.08
r21 45 57 7.36421
r22 44 45 10.4
r23 42 44 0.26002
r24 40 56 7.36421
r25 39 40 10.4
r26 37 51 0.02
r27 37 39 0.26002
r28 36 42 0.0446983
r29 35 51 0.02
r30 35 36 0.76
r31 34 51 0.02
r32 33 49 0.0046983
r33 33 34 0.26
r34 30 31 9.6
r35 28 47 0.0046983
r36 28 30 0.36
r37 27 55 5.6964
r38 26 27 10.8
r39 24 55 5.6964
r40 23 26 0.26
r41 23 24 10.8
r42 20 55 5.6964
r43 19 23 0.26
r44 19 20 10.8
r45 17 51 0.02
r46 17 26 0.31998
r47 5 31 7.52412
r48 5 7 50.05
r49 1 31 7.52669
r50 1 4 65.45
.ends

.subckt PM_FOUR_BIT_ADDER%X12/15 1 24 25 26 28
c3 24 0 0.0247975f
c4 12 0 0.0471188f
c5 1 0 0.0471188f
r6 23 24 0.48
r7 22 28 5.6964
r8 21 22 10.8
r9 19 28 5.6964
r10 18 21 0.26
r11 18 19 10.8
r12 15 28 5.6964
r13 14 18 0.26
r14 14 15 10.8
r15 12 24 0.0446983
r16 12 21 0.11998
r17 7 10 0.26
r18 4 26 1.40625
r19 4 25 1.40625
r20 4 10 10.8
r21 4 7 10.8
r22 3 7 0.26
r23 3 4 10.8
r24 1 23 0.0446983
r25 1 10 0.11998
.ends

.subckt PM_FOUR_BIT_ADDER%X12/16 1 4 8 15 18 20 42 47 52 53 54 76 77
c12 75 0 0.00496f
c13 72 0 0.0173588f
c14 59 0 0.0334788f
c15 58 0 0.0434f
c16 57 0 0.0433975f
c17 56 0 0.00496f
c18 55 0 0.0483575f
c19 54 0 0.04216f
c20 53 0 0.0421575f
c21 52 0 0.0421575f
c22 47 0 0.0681988f
c23 42 0 0.0297575f
c24 24 0 0.03096f
c25 20 0 0.0111606f
c26 18 0 0.00248f
c27 16 0 0.03096f
c28 15 0 0.0260388f
c29 6 0 0.03096f
c30 5 0 0.0533166f
c31 4 0 0.05576f
c32 1 0 0.134157f
r33 73 77 7.36421
r34 72 73 10.4
r35 70 75 0.0338756
r36 70 72 0.24002
r37 68 75 0.00880368
r38 66 76 6.80984
r39 65 66 10.8
r40 62 76 6.80984
r41 61 65 0.2
r42 61 62 10.8
r43 59 75 0.0338756
r44 59 65 0.29998
r45 57 58 0.7
r46 56 57 0.7
r47 55 67 0.0446983
r48 55 58 0.7
r49 53 54 0.68
r50 52 54 0.68
r51 51 56 0.0446983
r52 51 53 0.68
r53 47 52 0.0446983
r54 42 68 0.26
r55 42 67 0.22
r56 41 47 0.88
r57 23 41 0.2
r58 23 24 9.6
r59 20 21 9.6
r60 18 20 0.36
r61 15 16 9.6
r62 13 18 0.0446983
r63 13 15 0.52
r64 6 21 7.5254
r65 6 8 34.65
r66 5 24 7.5254
r67 5 8 84.7
r68 1 16 7.5254
r69 1 4 123.2
.ends

.subckt PM_FOUR_BIT_ADDER%X12/17 1 4 7 10 30 32 47 48 51 59 60 61 62
c16 60 0 0.00496f
c17 59 0 0.100438f
c18 54 0 0.0433988f
c19 51 0 0.0111588f
c20 48 0 0.081964f
c21 47 0 0.0819615f
c22 46 0 0.081964f
c23 45 0 0.0819615f
c24 44 0 0.00496f
c25 43 0 0.0869215f
c26 32 0 0.0309988f
c27 30 0 0.0452575f
c28 21 0 0.03096f
c29 8 0 0.00344f
c30 7 0 0.0791166f
c31 6 0 0.0206366f
c32 4 0 0.05576f
c33 1 0 0.153077f
r34 58 59 1.62
r35 54 59 0.0446983
r36 52 62 7.36421
r37 51 52 10.4
r38 49 60 0.0338756
r39 49 51 0.14
r40 47 48 1.322
r41 46 47 1.322
r42 45 46 1.322
r43 44 45 1.322
r44 43 58 0.0446983
r45 43 48 1.322
r46 41 60 0.00880368
r47 40 44 0.0446983
r48 39 61 6.80984
r49 38 39 10.8
r50 35 61 6.80984
r51 34 38 0.2
r52 34 35 10.8
r53 32 60 0.0338756
r54 32 38 0.26
r55 31 54 0.48
r56 30 41 0.26
r57 30 40 0.47
r58 20 31 0.2
r59 20 21 9.6
r60 8 10 92.4
r61 7 21 7.5254
r62 7 10 84.7
r63 5 8 4.30221
r64 5 6 46.2
r65 1 6 4.30221
r66 1 4 157.85
.ends

.subckt PM_FOUR_BIT_ADDER%X12/18 4 7 25 29 31 47 48 50 51
c5 43 0 0.00496f
c6 42 0 0.00496f
c7 39 0 0.0483588f
c8 37 0 0.00496f
c9 34 0 0.0483588f
c10 31 0 0.0247975f
c11 29 0 0.0247975f
c12 25 0 0.0359588f
c13 10 0 0.0508388f
c14 7 0 0.0326783f
c15 5 0 0.03096f
c16 4 0 0.057f
c17 1 0 0.0584766f
r18 40 51 7.36421
r19 39 40 10.4
r20 37 39 0.74
r21 35 50 7.36421
r22 34 35 10.4
r23 32 42 0.00880368
r24 32 34 0.74
r25 31 37 0.0446983
r26 30 43 0.0338756
r27 30 31 0.48
r28 29 43 0.0338756
r29 28 42 0.0338756
r30 28 29 0.48
r31 25 26 9.6
r32 23 42 0.0338756
r33 23 25 0.63998
r34 16 19 0.26
r35 13 48 1.40625
r36 13 47 1.40625
r37 13 19 10.8
r38 13 16 10.8
r39 12 16 0.26
r40 12 13 10.8
r41 10 43 0.00880368
r42 10 19 0.26
r43 5 26 7.5254
r44 5 7 50.05
r45 1 26 7.5254
r46 1 4 65.45
.ends

.subckt PM_FOUR_BIT_ADDER%X12/19 4 7 25 29 31 47 48 50 51
c5 43 0 0.00496f
c6 42 0 0.00496f
c7 39 0 0.0483588f
c8 37 0 0.00496f
c9 34 0 0.0483588f
c10 31 0 0.0247975f
c11 29 0 0.0247975f
c12 25 0 0.0359588f
c13 10 0 0.0508388f
c14 7 0 0.0326783f
c15 5 0 0.03096f
c16 4 0 0.057f
c17 1 0 0.0584766f
r18 40 51 7.36421
r19 39 40 10.4
r20 37 39 0.74
r21 35 50 7.36421
r22 34 35 10.4
r23 32 42 0.00880368
r24 32 34 0.74
r25 31 37 0.0446983
r26 30 43 0.0338756
r27 30 31 0.48
r28 29 43 0.0338756
r29 28 42 0.0338756
r30 28 29 0.48
r31 25 26 9.6
r32 23 42 0.0338756
r33 23 25 0.63998
r34 16 19 0.26
r35 13 48 1.40625
r36 13 47 1.40625
r37 13 19 10.8
r38 13 16 10.8
r39 12 16 0.26
r40 12 13 10.8
r41 10 43 0.00880368
r42 10 19 0.26
r43 5 26 7.5254
r44 5 7 50.05
r45 1 26 7.5254
r46 1 4 65.45
.ends

.subckt PM_FOUR_BIT_ADDER%X12/20 1 2
r0 1 2 13.2
.ends

.subckt PM_FOUR_BIT_ADDER%X12/21 1 2
r0 1 2 2.8125
.ends

.subckt PM_FOUR_BIT_ADDER%X13/13 1 4 6 7 8 10 13 20 36 45 58 62 70 80 81 82
c18 72 0 0.00496f
c19 70 0 0.01178f
c20 65 0 0.0247988f
c21 62 0 0.00991752f
c22 58 0 0.0508388f
c23 45 0 0.0557988f
c24 38 0 0.00496f
c25 37 0 0.113458f
c26 36 0 0.0905175f
c27 34 0 0.00433752f
c28 30 0 0.03096f
c29 27 0 0.0334788f
c30 20 0 0.0458788f
c31 13 0 0.0206383f
c32 11 0 0.03096f
c33 8 0 0.03096f
c34 7 0 0.0636366f
c35 6 0 0.07912f
c36 4 0 0.106717f
c37 1 0 0.0326766f
r38 68 70 0.11
r39 66 82 6.6
r40 66 81 6.6
r41 65 66 10.4
r42 63 72 0.00880368
r43 63 65 0.36
r44 61 72 0.0338756
r45 61 62 0.2
r46 58 59 9.6
r47 56 72 0.0338756
r48 56 58 0.92
r49 55 80 5.6964
r50 54 55 10.8
r51 52 80 5.6964
r52 51 54 0.26
r53 51 52 10.8
r54 48 80 5.6964
r55 47 51 0.26
r56 47 48 10.8
r57 45 62 0.0446983
r58 45 54 0.26
r59 42 43 9.6
r60 37 39 0.0446983
r61 37 38 1.75
r62 36 70 0.0046983
r63 35 38 0.0446983
r64 35 36 1.46
r65 33 68 0.0046983
r66 33 34 0.07
r67 29 30 9.6
r68 27 34 0.0446983
r69 20 42 0.44
r70 20 39 0.36
r71 19 27 0.2
r72 19 29 0.31998
r73 11 59 7.5254
r74 11 13 23.1
r75 8 43 7.5254
r76 8 10 77
r77 7 59 7.5254
r78 7 10 65.45
r79 4 6 177.1
r80 1 30 7.52669
r81 1 6 73.15
.ends

.subckt PM_FOUR_BIT_ADDER%X13/14 4 7 17 34 36 55 56 57
c7 51 0 0.00496f
c8 49 0 0.00992f
c9 44 0 0.0185988f
c10 42 0 0.00496f
c11 39 0 0.0185988f
c12 36 0 0.0396775f
c13 34 0 0.0161175f
c14 30 0 0.0185988f
c15 17 0 0.0545588f
c16 7 0 0.0326783f
c17 5 0 0.03096f
c18 4 0 0.057f
c19 1 0 0.0584766f
r20 47 49 0.08
r21 45 57 7.36421
r22 44 45 10.4
r23 42 44 0.26002
r24 40 56 7.36421
r25 39 40 10.4
r26 37 51 0.02
r27 37 39 0.26002
r28 36 42 0.0446983
r29 35 51 0.02
r30 35 36 0.76
r31 34 51 0.02
r32 33 49 0.0046983
r33 33 34 0.26
r34 30 31 9.6
r35 28 47 0.0046983
r36 28 30 0.36
r37 27 55 5.6964
r38 26 27 10.8
r39 24 55 5.6964
r40 23 26 0.26
r41 23 24 10.8
r42 20 55 5.6964
r43 19 23 0.26
r44 19 20 10.8
r45 17 51 0.02
r46 17 26 0.31998
r47 5 31 7.52412
r48 5 7 50.05
r49 1 31 7.52669
r50 1 4 65.45
.ends

.subckt PM_FOUR_BIT_ADDER%X13/15 1 24 25 26 28
c3 24 0 0.0247975f
c4 12 0 0.0471188f
c5 1 0 0.0471188f
r6 23 24 0.48
r7 22 28 5.6964
r8 21 22 10.8
r9 19 28 5.6964
r10 18 21 0.26
r11 18 19 10.8
r12 15 28 5.6964
r13 14 18 0.26
r14 14 15 10.8
r15 12 24 0.0446983
r16 12 21 0.11998
r17 7 10 0.26
r18 4 26 1.40625
r19 4 25 1.40625
r20 4 10 10.8
r21 4 7 10.8
r22 3 7 0.26
r23 3 4 10.8
r24 1 23 0.0446983
r25 1 10 0.11998
.ends

.subckt PM_FOUR_BIT_ADDER%X13/16 1 4 8 15 18 20 42 47 52 53 54 76 77
c12 75 0 0.00496f
c13 72 0 0.0173588f
c14 59 0 0.0334788f
c15 58 0 0.0434f
c16 57 0 0.0433975f
c17 56 0 0.00496f
c18 55 0 0.0483575f
c19 54 0 0.04216f
c20 53 0 0.0421575f
c21 52 0 0.0421575f
c22 47 0 0.0681988f
c23 42 0 0.0297575f
c24 24 0 0.03096f
c25 20 0 0.0111606f
c26 18 0 0.00248f
c27 16 0 0.03096f
c28 15 0 0.0260388f
c29 6 0 0.03096f
c30 5 0 0.0533166f
c31 4 0 0.05576f
c32 1 0 0.134157f
r33 73 77 7.36421
r34 72 73 10.4
r35 70 75 0.0338756
r36 70 72 0.24002
r37 68 75 0.00880368
r38 66 76 6.80984
r39 65 66 10.8
r40 62 76 6.80984
r41 61 65 0.2
r42 61 62 10.8
r43 59 75 0.0338756
r44 59 65 0.29998
r45 57 58 0.7
r46 56 57 0.7
r47 55 67 0.0446983
r48 55 58 0.7
r49 53 54 0.68
r50 52 54 0.68
r51 51 56 0.0446983
r52 51 53 0.68
r53 47 52 0.0446983
r54 42 68 0.26
r55 42 67 0.22
r56 41 47 0.88
r57 23 41 0.2
r58 23 24 9.6
r59 20 21 9.6
r60 18 20 0.36
r61 15 16 9.6
r62 13 18 0.0446983
r63 13 15 0.52
r64 6 21 7.5254
r65 6 8 34.65
r66 5 24 7.5254
r67 5 8 84.7
r68 1 16 7.5254
r69 1 4 123.2
.ends

.subckt PM_FOUR_BIT_ADDER%X13/17 1 4 7 10 30 32 47 48 51 59 60 61 62
c16 60 0 0.00496f
c17 59 0 0.100438f
c18 54 0 0.0433988f
c19 51 0 0.0111588f
c20 48 0 0.081964f
c21 47 0 0.0819615f
c22 46 0 0.081964f
c23 45 0 0.0819615f
c24 44 0 0.00496f
c25 43 0 0.0869215f
c26 32 0 0.0309988f
c27 30 0 0.0452575f
c28 21 0 0.03096f
c29 8 0 0.00344f
c30 7 0 0.0791166f
c31 6 0 0.0206366f
c32 4 0 0.05576f
c33 1 0 0.153077f
r34 58 59 1.62
r35 54 59 0.0446983
r36 52 62 7.36421
r37 51 52 10.4
r38 49 60 0.0338756
r39 49 51 0.14
r40 47 48 1.322
r41 46 47 1.322
r42 45 46 1.322
r43 44 45 1.322
r44 43 58 0.0446983
r45 43 48 1.322
r46 41 60 0.00880368
r47 40 44 0.0446983
r48 39 61 6.80984
r49 38 39 10.8
r50 35 61 6.80984
r51 34 38 0.2
r52 34 35 10.8
r53 32 60 0.0338756
r54 32 38 0.26
r55 31 54 0.48
r56 30 41 0.26
r57 30 40 0.47
r58 20 31 0.2
r59 20 21 9.6
r60 8 10 92.4
r61 7 21 7.5254
r62 7 10 84.7
r63 5 8 4.30221
r64 5 6 46.2
r65 1 6 4.30221
r66 1 4 157.85
.ends

.subckt PM_FOUR_BIT_ADDER%X13/18 4 7 25 29 31 47 48 50 51
c5 43 0 0.00496f
c6 42 0 0.00496f
c7 39 0 0.0483588f
c8 37 0 0.00496f
c9 34 0 0.0483588f
c10 31 0 0.0247975f
c11 29 0 0.0247975f
c12 25 0 0.0359588f
c13 10 0 0.0508388f
c14 7 0 0.0326783f
c15 5 0 0.03096f
c16 4 0 0.057f
c17 1 0 0.0584766f
r18 40 51 7.36421
r19 39 40 10.4
r20 37 39 0.74
r21 35 50 7.36421
r22 34 35 10.4
r23 32 42 0.00880368
r24 32 34 0.74
r25 31 37 0.0446983
r26 30 43 0.0338756
r27 30 31 0.48
r28 29 43 0.0338756
r29 28 42 0.0338756
r30 28 29 0.48
r31 25 26 9.6
r32 23 42 0.0338756
r33 23 25 0.63998
r34 16 19 0.26
r35 13 48 1.40625
r36 13 47 1.40625
r37 13 19 10.8
r38 13 16 10.8
r39 12 16 0.26
r40 12 13 10.8
r41 10 43 0.00880368
r42 10 19 0.26
r43 5 26 7.5254
r44 5 7 50.05
r45 1 26 7.5254
r46 1 4 65.45
.ends

.subckt PM_FOUR_BIT_ADDER%X13/19 4 7 25 29 31 47 48 50 51
c5 43 0 0.00496f
c6 42 0 0.00496f
c7 39 0 0.0483588f
c8 37 0 0.00496f
c9 34 0 0.0483588f
c10 31 0 0.0247975f
c11 29 0 0.0247975f
c12 25 0 0.0359588f
c13 10 0 0.0508388f
c14 7 0 0.0326783f
c15 5 0 0.03096f
c16 4 0 0.057f
c17 1 0 0.0584766f
r18 40 51 7.36421
r19 39 40 10.4
r20 37 39 0.74
r21 35 50 7.36421
r22 34 35 10.4
r23 32 42 0.00880368
r24 32 34 0.74
r25 31 37 0.0446983
r26 30 43 0.0338756
r27 30 31 0.48
r28 29 43 0.0338756
r29 28 42 0.0338756
r30 28 29 0.48
r31 25 26 9.6
r32 23 42 0.0338756
r33 23 25 0.63998
r34 16 19 0.26
r35 13 48 1.40625
r36 13 47 1.40625
r37 13 19 10.8
r38 13 16 10.8
r39 12 16 0.26
r40 12 13 10.8
r41 10 43 0.00880368
r42 10 19 0.26
r43 5 26 7.5254
r44 5 7 50.05
r45 1 26 7.5254
r46 1 4 65.45
.ends

.subckt PM_FOUR_BIT_ADDER%X13/20 1 2
r0 1 2 13.2
.ends

.subckt PM_FOUR_BIT_ADDER%X13/21 1 2
r0 1 2 2.8125
.ends

.subckt PM_FOUR_BIT_ADDER%X14/13 1 4 6 7 8 10 13 20 36 45 58 62 70 80 81 82
c18 72 0 0.00496f
c19 70 0 0.01178f
c20 65 0 0.0247988f
c21 62 0 0.00991752f
c22 58 0 0.0508388f
c23 45 0 0.0557988f
c24 38 0 0.00496f
c25 37 0 0.113458f
c26 36 0 0.0905175f
c27 34 0 0.00433752f
c28 30 0 0.03096f
c29 27 0 0.0334788f
c30 20 0 0.0458788f
c31 13 0 0.0206383f
c32 11 0 0.03096f
c33 8 0 0.03096f
c34 7 0 0.0636366f
c35 6 0 0.07912f
c36 4 0 0.106717f
c37 1 0 0.0326766f
r38 68 70 0.11
r39 66 82 6.6
r40 66 81 6.6
r41 65 66 10.4
r42 63 72 0.00880368
r43 63 65 0.36
r44 61 72 0.0338756
r45 61 62 0.2
r46 58 59 9.6
r47 56 72 0.0338756
r48 56 58 0.92
r49 55 80 5.6964
r50 54 55 10.8
r51 52 80 5.6964
r52 51 54 0.26
r53 51 52 10.8
r54 48 80 5.6964
r55 47 51 0.26
r56 47 48 10.8
r57 45 62 0.0446983
r58 45 54 0.26
r59 42 43 9.6
r60 37 39 0.0446983
r61 37 38 1.75
r62 36 70 0.0046983
r63 35 38 0.0446983
r64 35 36 1.46
r65 33 68 0.0046983
r66 33 34 0.07
r67 29 30 9.6
r68 27 34 0.0446983
r69 20 42 0.44
r70 20 39 0.36
r71 19 27 0.2
r72 19 29 0.31998
r73 11 59 7.5254
r74 11 13 23.1
r75 8 43 7.5254
r76 8 10 77
r77 7 59 7.5254
r78 7 10 65.45
r79 4 6 177.1
r80 1 30 7.52669
r81 1 6 73.15
.ends

.subckt PM_FOUR_BIT_ADDER%X14/14 4 7 17 34 36 55 56 57
c7 51 0 0.00496f
c8 49 0 0.00992f
c9 44 0 0.0185988f
c10 42 0 0.00496f
c11 39 0 0.0185988f
c12 36 0 0.0396775f
c13 34 0 0.0161175f
c14 30 0 0.0185988f
c15 17 0 0.0545588f
c16 7 0 0.0326783f
c17 5 0 0.03096f
c18 4 0 0.057f
c19 1 0 0.0584766f
r20 47 49 0.08
r21 45 57 7.36421
r22 44 45 10.4
r23 42 44 0.26002
r24 40 56 7.36421
r25 39 40 10.4
r26 37 51 0.02
r27 37 39 0.26002
r28 36 42 0.0446983
r29 35 51 0.02
r30 35 36 0.76
r31 34 51 0.02
r32 33 49 0.0046983
r33 33 34 0.26
r34 30 31 9.6
r35 28 47 0.0046983
r36 28 30 0.36
r37 27 55 5.6964
r38 26 27 10.8
r39 24 55 5.6964
r40 23 26 0.26
r41 23 24 10.8
r42 20 55 5.6964
r43 19 23 0.26
r44 19 20 10.8
r45 17 51 0.02
r46 17 26 0.31998
r47 5 31 7.52412
r48 5 7 50.05
r49 1 31 7.52669
r50 1 4 65.45
.ends

.subckt PM_FOUR_BIT_ADDER%X14/15 1 24 25 26 28
c3 24 0 0.0247975f
c4 12 0 0.0471188f
c5 1 0 0.0471188f
r6 23 24 0.48
r7 22 28 5.6964
r8 21 22 10.8
r9 19 28 5.6964
r10 18 21 0.26
r11 18 19 10.8
r12 15 28 5.6964
r13 14 18 0.26
r14 14 15 10.8
r15 12 24 0.0446983
r16 12 21 0.11998
r17 7 10 0.26
r18 4 26 1.40625
r19 4 25 1.40625
r20 4 10 10.8
r21 4 7 10.8
r22 3 7 0.26
r23 3 4 10.8
r24 1 23 0.0446983
r25 1 10 0.11998
.ends

.subckt PM_FOUR_BIT_ADDER%X14/16 1 4 8 15 18 20 42 47 52 53 54 76 77
c12 75 0 0.00496f
c13 72 0 0.0173588f
c14 59 0 0.0334788f
c15 58 0 0.0434f
c16 57 0 0.0433975f
c17 56 0 0.00496f
c18 55 0 0.0483575f
c19 54 0 0.04216f
c20 53 0 0.0421575f
c21 52 0 0.0421575f
c22 47 0 0.0681988f
c23 42 0 0.0297575f
c24 24 0 0.03096f
c25 20 0 0.0111606f
c26 18 0 0.00248f
c27 16 0 0.03096f
c28 15 0 0.0260388f
c29 6 0 0.03096f
c30 5 0 0.0533166f
c31 4 0 0.05576f
c32 1 0 0.134157f
r33 73 77 7.36421
r34 72 73 10.4
r35 70 75 0.0338756
r36 70 72 0.24002
r37 68 75 0.00880368
r38 66 76 6.80984
r39 65 66 10.8
r40 62 76 6.80984
r41 61 65 0.2
r42 61 62 10.8
r43 59 75 0.0338756
r44 59 65 0.29998
r45 57 58 0.7
r46 56 57 0.7
r47 55 67 0.0446983
r48 55 58 0.7
r49 53 54 0.68
r50 52 54 0.68
r51 51 56 0.0446983
r52 51 53 0.68
r53 47 52 0.0446983
r54 42 68 0.26
r55 42 67 0.22
r56 41 47 0.88
r57 23 41 0.2
r58 23 24 9.6
r59 20 21 9.6
r60 18 20 0.36
r61 15 16 9.6
r62 13 18 0.0446983
r63 13 15 0.52
r64 6 21 7.5254
r65 6 8 34.65
r66 5 24 7.5254
r67 5 8 84.7
r68 1 16 7.5254
r69 1 4 123.2
.ends

.subckt PM_FOUR_BIT_ADDER%X14/17 1 4 7 10 30 32 47 48 51 59 60 61 62
c16 60 0 0.00496f
c17 59 0 0.100438f
c18 54 0 0.0433988f
c19 51 0 0.0111588f
c20 48 0 0.081964f
c21 47 0 0.0819615f
c22 46 0 0.081964f
c23 45 0 0.0819615f
c24 44 0 0.00496f
c25 43 0 0.0869215f
c26 32 0 0.0309988f
c27 30 0 0.0452575f
c28 21 0 0.03096f
c29 8 0 0.00344f
c30 7 0 0.0791166f
c31 6 0 0.0206366f
c32 4 0 0.05576f
c33 1 0 0.153077f
r34 58 59 1.62
r35 54 59 0.0446983
r36 52 62 7.36421
r37 51 52 10.4
r38 49 60 0.0338756
r39 49 51 0.14
r40 47 48 1.322
r41 46 47 1.322
r42 45 46 1.322
r43 44 45 1.322
r44 43 58 0.0446983
r45 43 48 1.322
r46 41 60 0.00880368
r47 40 44 0.0446983
r48 39 61 6.80984
r49 38 39 10.8
r50 35 61 6.80984
r51 34 38 0.2
r52 34 35 10.8
r53 32 60 0.0338756