* File: full_adder.pex.netlist.pex
* Created: Sun Dec 18 00:11:26 2022
* Program "Calibre xRC"
* Version "v2012.2_36.25"
* Nominal Temperature: 27C
* Circuit Temperature: 27C
* 
.subckt PM_FULL_ADDER%GND 33 45 46 48 49 51 52 53 55 57 68 80 81 86 96 115 134
+ 135 155 169 193 199 235 236 237 239 240 241 243 244 245 246 247 248 250 251
+ 252 256
c265 256 0 1.695f
c266 199 0 0.00738854f
c267 194 0 0.0209535f
c268 179 0 0.00743876f
c269 171 0 0.00496f
c270 169 0 0.08959f
c271 155 0 0.0511469f
c272 154 0 0.16244f
c273 149 0 0.0223188f
c274 142 0 0.0998157f
c275 139 0 0.027575f
c276 135 0 0.0500495f
c277 134 0 0.163757f
c278 129 0 0.0236356f
c279 122 0 0.101498f
c280 119 0 0.0272788f
c281 116 0 0.093f
c282 115 0 0.0247975f
c283 107 0 0.0173588f
c284 104 0 0.0148788f
c285 96 0 0.0223175f
c286 94 0 0.00743752f
c287 88 0 0.0198388f
c288 86 0 0.462168f
c289 85 0 0.0260388f
c290 81 0 0.0511469f
c291 80 0 0.16244f
c292 75 0 0.0223188f
c293 68 0 0.0998157f
c294 65 0 0.0322388f
c295 57 0 1.94729f
c296 55 0 2.47097f
c297 53 0 0.661104f
c298 52 0 0.165763f
c299 51 0 0.961934f
c300 49 0 0.82771f
c301 48 0 2.29225f
c302 46 0 1.36438f
c303 45 0 0.607387f
r304 198 199 5.5546
r305 193 194 0.0385597
r306 190 191 0.0439695
r307 188 190 0.0341985
r308 188 189 2.7
r309 185 186 0.0439399
r310 183 185 0.0341755
r311 183 184 2.41503
r312 179 181 0.04
r313 179 180 5.4
r314 177 244 7.36421
r315 176 179 0.0266667
r316 176 177 10.4
r317 173 176 0.0733333
r318 165 239 7.36421
r319 164 169 0.0788955
r320 164 165 10.4
r321 161 162 0.0439695
r322 159 161 0.0341985
r323 159 160 2.7
r324 157 191 0.0608734
r325 157 194 0.338
r326 154 191 0.0521138
r327 154 155 0.592
r328 152 252 6.6
r329 152 251 6.6
r330 151 152 10.4
r331 149 155 0.0454198
r332 149 151 0.22
r333 145 250 7.36421
r334 144 145 10.4
r335 142 190 0.0108562
r336 142 144 0.12
r337 139 140 18.5983
r338 136 186 0.0584376
r339 134 186 0.0527154
r340 134 135 0.588224
r341 132 248 6.4702
r342 132 247 6.4702
r343 131 132 9.30233
r344 129 135 0.0450973
r345 129 131 0.207743
r346 125 246 7.17954
r347 124 125 9.30233
r348 122 185 0.0102339
r349 122 124 0.118011
r350 120 256 0.121756
r351 119 120 12.5439
r352 116 181 0.0515193
r353 114 181 0.0477454
r354 114 115 0.48
r355 110 245 7.36421
r356 109 110 10.4
r357 107 115 0.0446983
r358 107 109 0.16
r359 105 243 7.36421
r360 104 105 10.4
r361 102 173 0.0477454
r362 102 104 0.2
r363 100 256 0.0678155
r364 97 171 0.00880368
r365 95 171 0.0338756
r366 95 96 0.4
r367 94 171 0.0338756
r368 93 169 0.057704
r369 93 94 0.12
r370 91 241 6.6
r371 91 240 6.6
r372 90 91 10.4
r373 88 96 0.0446983
r374 88 90 0.2
r375 85 86 20.1724
r376 82 162 0.0608734
r377 80 162 0.0521138
r378 80 81 0.592
r379 78 237 6.6
r380 78 236 6.6
r381 77 78 10.4
r382 75 81 0.0454198
r383 75 77 0.21998
r384 71 235 7.36421
r385 70 71 10.4
r386 68 161 0.0108562
r387 68 70 0.119994
r388 67 139 0.031237
r389 67 136 0.358829
r390 66 119 0.02974
r391 66 116 0.4
r392 65 97 0.46254
r393 65 100 4.78973
r394 64 85 0.03364
r395 64 82 0.38
r396 63 199 0.0385901
r397 63 193 0.0001446
r398 57 140 0.036806
r399 55 120 0.100889
r400 53 140 0.0789991
r401 53 55 0.0401987
r402 51 52 0.00571193
r403 50 86 0.102223
r404 49 57 0.0360633
r405 48 198 0.074076
r406 48 49 0.0615103
r407 46 100 0.0310914
r408 46 52 0.0715144
r409 45 50 0.0250595
r410 45 51 0.0732361
r411 33 189 3.75
r412 33 184 3.75
r413 33 180 3.75
r414 33 160 3.75
r415 33 173 10.8
r416 33 169 3.6
r417 33 164 10.8
r418 33 144 10.8
r419 33 124 9.66011
r420 33 70 10.8
.ends

.subckt PM_FULL_ADDER%COUTN 5 6 8 9 11 24 26 42 47 51 53 56 72 73 77 78 80 81 83
c20 83 0 0.308157f
c21 73 0 0.00525264f
c22 72 0 0.00525264f
c23 66 0 0.113426f
c24 65 0 0.0274519f
c25 61 0 0.0512119f
c26 59 0 0.00525264f
c27 56 0 0.0512119f
c28 53 0 0.0239196f
c29 51 0 0.0239196f
c30 47 0 0.0356661f
c31 42 0 0.0207638f
c32 26 0 0.0538382f
c33 24 0 0.0274519f
c34 22 0 0.134666f
c35 17 0 0.00910733f
c36 11 0 0.0365343f
c37 9 0 0.0321778f
c38 6 0 0.0321778f
c39 5 0 0.0653768f
r40 83 87 0.550672
r41 66 83 0.0560375
r42 65 68 0.0647127
r43 65 66 4.29
r44 62 81 7.17954
r45 61 62 9.30233
r46 59 61 0.698772
r47 57 80 7.17954
r48 56 57 9.30233
r49 54 72 0.00745553
r50 54 56 0.698772
r51 53 59 0.0447461
r52 52 73 0.0355214
r53 52 53 0.47528
r54 51 73 0.0355214
r55 50 72 0.0355214
r56 50 51 0.47528
r57 47 48 8.58676
r58 45 72 0.0355214
r59 45 47 0.63764
r60 42 71 0.39728
r61 42 43 8.58676
r62 32 35 0.245515
r63 29 78 1.37859
r64 29 77 1.37859
r65 29 35 9.66011
r66 29 32 9.66011
r67 28 32 0.245515
r68 28 29 9.66011
r69 26 73 0.00745553
r70 26 35 0.245515
r71 22 87 0.0565768
r72 22 24 4.29
r73 17 71 0.0421198
r74 17 68 0.06064
r75 9 48 7.05129
r76 9 11 44.7674
r77 6 43 7.05129
r78 6 8 58.542
r79 5 48 7.05129
r80 5 8 58.542
.ends

.subckt PM_FULL_ADDER%COUT 9 13 25 35 46 47 48 53
c6 53 0 0.314642f
c7 46 0 0.00525264f
c8 40 0 0.113426f
c9 39 0 0.0274519f
c10 35 0 0.0183829f
c11 25 0 0.0274519f
c12 23 0 0.134666f
c13 13 0 0.035454f
c14 9 0 0.0214544f
r15 51 53 0.560787
r16 40 53 0.0560375
r17 39 42 0.0647127
r18 39 40 4.29
r19 36 48 7.17954
r20 35 36 9.30233
r21 33 46 0.032289
r22 33 35 0.226629
r23 31 46 0.0101625
r24 23 51 0.0565768
r25 23 25 4.29
r26 20 47 6.63945
r27 19 20 9.66011
r28 16 47 6.63945
r29 15 19 0.188857
r30 15 16 9.66011
r31 13 46 0.032289
r32 13 19 0.283286
r33 9 45 0.0407734
r34 9 31 0.21654
r35 9 45 0.00124
r36 9 42 0.04542
.ends

.subckt PM_FULL_ADDER%VDD 17 18 19 20 21 42 45 47 48 52 54 67 104 108 116 124
+ 126 127 134 136 153 156 157 176 178 195 198 199 207 215 218 220 270 279 282
+ 283 284 285 286 288 289 290 291 292 293 294 295 296 342 343 345 346 350 352
+ 353
c138 353 0 0.876575f
c139 352 0 1.03902f
c140 350 0 3.34837f
c141 346 0 0.576896f
c142 345 0 0.571531f
c143 343 0 0.710614f
c144 342 0 0.739537f
c145 279 0 0.00496f
c146 278 0 0.0173588f
c147 277 0 0.00775f
c148 270 0 0.00525264f
c149 269 0 0.0176514f
c150 268 0 0.0081158f
c151 261 0 0.00775f
c152 246 0 0.06076f
c153 244 0 0.00496f
c154 243 0 0.00775f
c155 236 0 0.00496f
c156 235 0 0.0173588f
c157 234 0 0.00775f
c158 220 0 0.117176f
c159 218 0 0.01736f
c160 215 0 0.0644788f
c161 207 0 0.0062f
c162 199 0 0.0471175f
c163 198 0 0.0545575f
c164 195 0 0.0223175f
c165 188 0 0.0359575f
c166 178 0 0.117176f
c167 176 0 0.0183842f
c168 173 0 0.068283f
c169 165 0 0.0065658f
c170 157 0 0.0498975f
c171 156 0 0.0530943f
c172 153 0 0.0220249f
c173 146 0 0.038079f
c174 136 0 0.117176f
c175 134 0 0.01736f
c176 127 0 0.00496f
c177 126 0 0.0322375f
c178 124 0 0.0136375f
c179 119 0 0.0260375f
c180 116 0 0.0508388f
c181 108 0 0.00496f
c182 106 0 0.0322375f
c183 104 0 0.0495975f
c184 99 0 0.0210775f
c185 89 0 0.117176f
c186 87 0 0.01736f
c187 84 0 0.0644788f
c188 76 0 0.0062f
c189 68 0 0.0471175f
c190 67 0 0.0545575f
c191 64 0 0.0223175f
c192 57 0 0.0359575f
c193 56 0 0.76154f
c194 54 0 0.759457f
c195 52 0 0.511535f
c196 50 0 0.232675f
c197 48 0 0.612672f
c198 47 0 0.714037f
c199 45 0 0.738475f
c200 42 0 0.758997f
c201 39 0 0.218283f
r202 348 350 0.0142551
r203 345 346 0.281927
r204 342 343 0.0491438
r205 281 294 5.6964
r206 280 281 10.8
r207 274 277 0.0434303
r208 272 291 5.5591
r209 271 272 9.66011
r210 265 268 0.0413493
r211 263 289 5.6964
r212 262 263 10.8
r213 258 261 0.0434303
r214 252 255 10.4
r215 252 253 10.4
r216 250 288 6.80984
r217 247 288 6.80984
r218 246 252 0.0571429
r219 246 250 10.8
r220 246 247 10.8
r221 240 243 0.0434303
r222 238 282 5.6964
r223 237 238 10.8
r224 231 234 0.0434143
r225 231 350 4.29
r226 226 229 10.4
r227 226 227 10.4
r228 224 296 6.80984
r229 221 296 6.80984
r230 220 226 0.0571429
r231 220 224 10.8
r232 220 221 10.8
r233 218 280 0.0241726
r234 218 226 0.0857143
r235 216 295 5.6964
r236 215 216 10.8
r237 213 295 5.6964
r238 212 215 0.26
r239 212 213 10.8
r240 210 295 5.6964
r241 209 212 0.26
r242 209 210 10.8
r243 207 209 0.48
r244 206 294 5.6964
r245 205 206 10.8
r246 203 294 5.6964
r247 202 205 0.26
r248 202 203 10.8
r249 200 279 0.00880368
r250 200 202 0.48
r251 199 280 0.0414387
r252 199 205 0.02
r253 198 207 0.0446983
r254 197 279 0.0338756
r255 197 198 1.04
r256 195 196 2.6
r257 193 279 0.0338756
r258 193 195 0.34
r259 192 278 0.0338756
r260 192 195 0.02
r261 188 278 0.00880368
r262 188 277 0.58
r263 184 187 9.30233
r264 184 185 9.30233
r265 182 293 6.63945
r266 179 293 6.63945
r267 178 184 0.0571429
r268 178 182 9.66011
r269 178 179 9.66011
r270 176 271 0.0237818
r271 176 184 0.08504
r272 174 292 5.5591
r273 173 174 9.66011
r274 171 292 5.5591
r275 170 173 0.245515
r276 170 171 9.66011
r277 168 292 5.5591
r278 167 170 0.245515
r279 167 168 9.66011
r280 165 167 0.453258
r281 164 291 5.5591
r282 163 164 9.66011
r283 161 291 5.5591
r284 160 163 0.245515
r285 160 161 9.66011
r286 158 270 0.00745553
r287 158 160 0.453258
r288 157 271 0.0400929
r289 157 163 0.0188857
r290 156 165 0.0447461
r291 155 270 0.0355214
r292 155 156 1.03528
r293 153 154 2.32558
r294 151 270 0.0355214
r295 151 153 0.33764
r296 150 269 0.0355214
r297 150 153 0.01764
r298 146 269 0.00745553
r299 146 268 0.547687
r300 142 145 10.4
r301 142 143 10.4
r302 140 290 6.80984
r303 137 290 6.80984
r304 136 142 0.0571429
r305 136 140 10.8
r306 136 137 10.8
r307 134 262 0.0241726
r308 134 142 0.0857143
r309 133 289 5.6964
r310 132 133 10.8
r311 130 289 5.6964
r312 129 132 0.26
r313 129 130 10.8
r314 127 129 0.24
r315 126 262 0.0414387
r316 126 132 0.02
r317 124 125 5.2
r318 122 127 0.0446983
r319 122 124 0.2
r320 121 124 0.02
r321 119 121 0.0446983
r322 119 261 0.28
r323 113 116 0.26
r324 111 286 1.40625
r325 111 285 1.40625
r326 111 116 10.8
r327 111 113 10.8
r328 110 113 0.26
r329 110 111 10.8
r330 108 110 0.26
r331 107 244 0.0338756
r332 106 252 0.0541827
r333 106 107 0.52
r334 102 108 0.0446983
r335 102 104 0.78
r336 101 244 0.00880368
r337 101 104 0.1
r338 99 244 0.0338756
r339 99 243 0.34
r340 95 98 10.4
r341 95 96 10.4
r342 93 284 6.80984
r343 90 284 6.80984
r344 89 95 0.0571429
r345 89 93 10.8
r346 89 90 10.8
r347 87 237 0.0241735
r348 87 95 0.0857143
r349 85 283 5.6964
r350 84 85 10.8
r351 82 283 5.6964
r352 81 84 0.26
r353 81 82 10.8
r354 79 283 5.6964
r355 78 81 0.26
r356 78 79 10.8
r357 76 78 0.48002
r358 75 282 5.6964
r359 74 75 10.8
r360 72 282 5.6964
r361 71 74 0.26
r362 71 72 10.8
r363 69 236 0.00880368
r364 69 71 0.48002
r365 68 237 0.0414378
r366 68 74 0.01998
r367 67 76 0.0446983
r368 66 236 0.0338756
r369 66 67 1.04
r370 64 65 2.6
r371 62 236 0.0338756
r372 62 64 0.34
r373 61 235 0.0338756
r374 61 64 0.02
r375 57 235 0.00880368
r376 57 234 0.58
r377 56 345 0.281927
r378 51 342 0.0491438
r379 51 52 0.0169724
r380 49 52 0.021282
r381 49 50 0.0394702
r382 47 48 0.0684839
r383 47 353 0.0684839
r384 45 52 0.0169724
r385 45 48 0.0684839
r386 44 348 0.0427985
r387 44 352 0.156093
r388 42 346 0.281927
r389 42 274 4.29
r390 40 54 0.00222266
r391 40 343 0.0491438
r392 40 265 3.97713
r393 40 56 0.0839576
r394 40 54 0.000782559
r395 39 50 0.0305653
r396 39 258 4.29
r397 38 353 0.018958
r398 38 352 0.0359859
r399 38 240 4.29
r400 21 229 5.5
r401 21 227 5.5
r402 21 196 3.85
r403 20 187 5.29185
r404 20 185 5.29185
r405 20 154 3.85
r406 19 145 5.5
r407 19 143 5.5
r408 19 125 3.3
r409 18 255 5.5
r410 18 253 5.5
r411 18 104 3.46667
r412 17 98 5.5011
r413 17 96 5.4989
r414 17 65 3.85
.ends

.subckt PM_FULL_ADDER%5 1 4 6 7 8 10 11 13 18 19 32 34 38 39 40 43 49 62 66 69
+ 73 78 86 87 88
c34 78 0 0.00496f
c35 73 0 0.0136251f
c36 69 0 0.0247988f
c37 66 0 0.00991752f
c38 62 0 0.0508388f
c39 49 0 0.0557988f
c40 43 0 0.0210738f
c41 40 0 0.00496f
c42 39 0 0.0570636f
c43 38 0 0.0761385f
c44 34 0 0.0103627f
c45 32 0 0.03096f
c46 19 0 0.0204154f
c47 18 0 0.00500846f
c48 13 0 0.0206383f
c49 11 0 0.03096f
c50 8 0 0.03096f
c51 7 0 0.0636366f
c52 6 0 0.07912f
c53 4 0 0.106717f
c54 1 0 0.0326766f
r55 70 88 6.6
r56 70 87 6.6
r57 69 70 10.4
r58 67 78 0.00880368
r59 67 69 0.36
r60 65 78 0.0338756
r61 65 66 0.2
r62 62 63 9.6
r63 60 78 0.0338756
r64 60 62 0.92
r65 59 86 5.6964
r66 58 59 10.8
r67 56 86 5.6964
r68 55 58 0.26
r69 55 56 10.8
r70 52 86 5.6964
r71 51 55 0.26
r72 51 52 10.8
r73 49 66 0.0446983
r74 49 58 0.26
r75 43 77 0.39992
r76 43 44 9.6
r77 39 46 0.0446983
r78 39 40 0.84042
r79 37 40 0.0446983
r80 37 38 1.22808
r81 34 38 0.0446983
r82 31 73 0.27978
r83 31 32 9.6
r84 19 77 0.039841
r85 19 46 0.24876
r86 18 73 0.0399404
r87 18 34 0.08718
r88 11 63 7.5254
r89 11 13 23.1
r90 8 44 7.5254
r91 8 10 77
r92 7 63 7.5254
r93 7 10 65.45
r94 4 6 177.1
r95 1 32 7.5254
r96 1 6 73.15
.ends

.subckt PM_FULL_ADDER%6 9 12 14 15 16 18 20 21 22 24 26 28 30 37 38 39 40 58 67
+ 73 82 92 96 98 102
c40 102 0 0.00538491f
c41 98 0 0.00620868f
c42 96 0 0.00502962f
c43 92 0 0.0136524f
c44 82 0 0.0209987f
c45 73 0 0.03096f
c46 67 0 0.00242668f
c47 58 0 0.03096f
c48 40 0 0.0278777f
c49 39 0 0.00508868f
c50 38 0 0.015319f
c51 37 0 0.00497109f
c52 30 0 0.132449f
c53 28 0 0.00384592f
c54 26 0 0.0202306f
c55 22 0 0.0321778f
c56 21 0 0.17114f
c57 20 0 0.08256f
c58 18 0 0.0739566f
c59 16 0 0.03096f
c60 15 0 0.0326766f
c61 14 0 0.07912f
c62 12 0 0.106717f
c63 9 0 0.0326766f
r64 82 102 0.358678
r65 82 83 8.58676
r66 72 73 9.6
r67 67 96 0.09916
r68 67 68 9.6
r69 57 58 9.6
r70 40 102 0.0370651
r71 39 98 0.0388327
r72 39 40 0.460974
r73 39 98 8e-05
r74 39 72 0.16008
r75 38 96 0.0406976
r76 37 92 0.0396816
r77 37 38 0.247988
r78 37 92 0.00012
r79 37 57 0.2801
r80 28 30 82.6476
r81 25 28 4.3196
r82 25 26 45.2914
r83 22 83 7.05129
r84 22 24 158.408
r85 21 26 4.3196
r86 21 24 141.19
r87 18 20 184.8
r88 16 68 7.5254
r89 16 18 165.55
r90 15 73 7.5254
r91 15 20 73.15
r92 12 14 177.1
r93 9 58 7.5254
r94 9 14 73.15
.ends

.subckt PM_FULL_ADDER%BN 13 16 18 19 20 22 24 25 26 28 30 31 32 34 35 36 38 40
+ 41 42 44 53 54 55 56 57 58 78 88 94 102 105 108 112 114 118 121 124 127 131
+ 133 137 142 144
c65 144 0 0.0333469f
c66 142 0 0.005086f
c67 137 0 0.00537819f
c68 133 0 0.0061628f
c69 131 0 0.00510707f
c70 127 0 0.0136586f
c71 124 0 0.03096f
c72 121 0 0.00591976f
c73 118 0 0.0197892f
c74 114 0 0.00496f
c75 112 0 0.0123963f
c76 108 0 0.0321778f
c77 105 0 0.00903585f
c78 102 0 0.0209502f
c79 94 0 0.03096f
c80 88 0 0.00249364f
c81 78 0 0.03096f
c82 58 0 0.00709032f
c83 57 0 0.0125959f
c84 56 0 0.0278777f
c85 55 0 0.00507964f
c86 54 0 0.015319f
c87 53 0 0.00510936f
c88 42 0 0.00344f
c89 41 0 0.0791166f
c90 40 0 0.0206366f
c91 36 0 0.03096f
c92 35 0 0.153077f
c93 32 0 0.00384592f
c94 31 0 0.0788375f
c95 30 0 0.0202306f
c96 26 0 0.0321778f
c97 25 0 0.180754f
c98 24 0 0.08256f
c99 22 0 0.0739566f
c100 20 0 0.03096f
c101 19 0 0.0326766f
c102 18 0 0.07912f
c103 16 0 0.106717f
c104 13 0 0.0326766f
r105 123 124 9.6
r106 121 147 0.0481634
r107 121 123 0.1555
r108 118 142 0.3792
r109 118 119 9.6
r110 112 139 0.00518453
r111 111 114 0.0446983
r112 111 112 0.19998
r113 107 108 8.58676
r114 102 137 0.357979
r115 102 103 8.58676
r116 93 133 0.15942
r117 93 94 9.6
r118 88 89 9.6
r119 77 78 9.6
r120 59 147 3.29979e-05
r121 59 144 3.29979e-05
r122 58 142 0.0401871
r123 58 114 0.1144
r124 57 139 0.137792
r125 57 105 0.02
r126 57 105 0.0177715
r127 57 107 0.168857
r128 56 137 0.0381441
r129 55 133 0.0399115
r130 55 56 0.455718
r131 54 131 0.0386153
r132 54 88 0.10012
r133 54 131 0.00012
r134 53 127 0.0385207
r135 53 54 0.255487
r136 53 127 0.00016
r137 53 77 0.28016
r138 42 44 92.4
r139 41 124 7.5254
r140 41 44 84.7
r141 39 42 4.30221
r142 39 40 46.2
r143 36 119 7.5254
r144 36 38 177.1
r145 35 40 4.30221
r146 35 38 157.85
r147 32 34 65.4293
r148 31 108 7.05129
r149 31 34 75.7603
r150 29 32 4.3196
r151 29 30 45.2914
r152 26 103 7.05129
r153 26 28 158.408
r154 25 30 4.3196
r155 25 28 158.408
r156 22 24 184.8
r157 20 89 7.5254
r158 20 22 165.55
r159 19 94 7.5254
r160 19 24 73.15
r161 16 18 177.1
r162 13 78 7.5254
r163 13 18 73.15
.ends

.subckt PM_FULL_ADDER%8 1 4 5 7 17 30 34 36 39 42 44 49 51 55 56 57
c17 51 0 0.00496f
c18 49 0 0.00992f
c19 44 0 0.0185988f
c20 42 0 0.00496f
c21 39 0 0.0185988f
c22 36 0 0.0396775f
c23 34 0 0.0161175f
c24 30 0 0.0185988f
c25 17 0 0.0545588f
c26 7 0 0.0326783f
c27 5 0 0.03096f
c28 4 0 0.057f
c29 1 0 0.0584766f
r30 47 49 0.08
r31 45 57 7.36421
r32 44 45 10.4
r33 42 44 0.26
r34 40 56 7.36421
r35 39 40 10.4
r36 37 51 0.02
r37 37 39 0.26
r38 36 42 0.0446983
r39 35 51 0.02
r40 35 36 0.76
r41 34 51 0.02
r42 33 49 0.0046983
r43 33 34 0.26
r44 30 31 9.6
r45 28 47 0.0046983
r46 28 30 0.36
r47 27 55 5.6964
r48 26 27 10.8
r49 24 55 5.6964
r50 23 26 0.26
r51 23 24 10.8
r52 20 55 5.6964
r53 19 23 0.26
r54 19 20 10.8
r55 17 51 0.02
r56 17 26 0.32
r57 5 31 7.5254
r58 5 7 50.05
r59 1 31 7.5254
r60 1 4 65.45
.ends

.subckt PM_FULL_ADDER%9 1 12 24 25 26 28
c5 24 0 0.0247975f
c6 12 0 0.0471188f
c7 1 0 0.0471188f
r8 23 24 0.48
r9 22 28 5.6964
r10 21 22 10.8
r11 19 28 5.6964
r12 18 21 0.26
r13 18 19 10.8
r14 15 28 5.6964
r15 14 18 0.26
r16 14 15 10.8
r17 12 24 0.0446983
r18 12 21 0.12
r19 7 10 0.26
r20 4 26 1.40625
r21 4 25 1.40625
r22 4 10 10.8
r23 4 7 10.8
r24 3 7 0.26
r25 3 4 10.8
r26 1 23 0.0446983
r27 1 10 0.12
.ends

.subckt PM_FULL_ADDER%10 5 8 10 11 14 18 19 33 36 40 41 42 43 55 58 62 67 72 73
c27 67 0 0.00496f
c28 62 0 0.0062186f
c29 58 0 0.0173588f
c30 55 0 0.0135867f
c31 43 0 0.0334788f
c32 42 0 0.00496f
c33 41 0 0.119424f
c34 40 0 0.0946604f
c35 36 0 0.0357988f
c36 33 0 0.03096f
c37 19 0 0.0179072f
c38 18 0 0.00503649f
c39 12 0 0.00344f
c40 11 0 0.0705166f
c41 10 0 0.0206366f
c42 8 0 0.05576f
c43 5 0 0.161677f
r44 59 73 7.36421
r45 58 59 10.4
r46 56 67 0.0338756
r47 56 58 0.24
r48 55 67 0.00880368
r49 55 66 0.21918
r50 50 72 6.80984
r51 49 50 10.8
r52 46 72 6.80984
r53 45 49 0.2
r54 45 46 10.8
r55 43 67 0.0338756
r56 43 49 0.3
r57 41 51 0.0446983
r58 41 42 1.84624
r59 39 42 0.0446983
r60 39 40 1.52682
r61 36 40 0.0446983
r62 32 33 9.6
r63 19 66 0.0395926
r64 19 51 0.20554
r65 18 62 0.039078
r66 18 36 0.49744
r67 18 62 0.00016
r68 18 32 0.16014
r69 12 14 73.15
r70 11 33 7.52669
r71 11 14 84.7
r72 9 12 4.30221
r73 9 10 46.2
r74 5 10 4.30221
r75 5 8 177.1
.ends

.subckt PM_FULL_ADDER%A 13 14 16 17 18 20 21 22 24 26 32 33 34 35 36 43 57 58 61
+ 65 67 68 71 76 77 79 81 87 95 98 101 106 110 114 117 130 131
c48 114 0 0.00500592f
c49 110 0 0.00656186f
c50 106 0 0.00496f
c51 101 0 0.03096f
c52 98 0 0.00594456f
c53 95 0 0.0198338f
c54 87 0 0.0321778f
c55 81 0 0.0114533f
c56 79 0 0.00248f
c57 77 0 0.0321778f
c58 76 0 0.0254535f
c59 71 0 0.0234806f
c60 68 0 0.00278127f
c61 67 0 0.00496f
c62 65 0 0.0762191f
c63 61 0 0.0111588f
c64 58 0 0.00496f
c65 57 0 0.0802082f
c66 43 0 0.0309988f
c67 36 0 0.00741685f
c68 35 0 0.0169049f
c69 34 0 0.00534087f
c70 33 0 0.0122611f
c71 32 0 0.0341487f
c72 26 0 0.11524f
c73 24 0 0.0791166f
c74 22 0 0.03096f
c75 21 0 0.0378366f
c76 18 0 0.0321778f
c77 17 0 0.0596079f
c78 14 0 0.0321778f
c79 13 0 0.149987f
r80 100 101 9.6
r81 98 100 0.1559
r82 95 114 0.37992
r83 95 96 9.6
r84 86 110 0.151048
r85 86 87 8.58676
r86 81 82 8.58676
r87 79 81 0.339943
r88 76 77 8.58676
r89 74 79 0.0447461
r90 74 76 0.51764
r91 71 72 8.58676
r92 65 67 0.0446983
r93 64 65 1.22938
r94 62 131 7.36421
r95 61 62 10.4
r96 59 106 0.0338756
r97 59 61 0.14
r98 57 64 0.0446983
r99 57 58 1.21372
r100 55 106 0.00880368
r101 51 58 0.0446983
r102 50 130 6.80984
r103 49 50 10.8
r104 46 130 6.80984
r105 45 49 0.2
r106 45 46 10.8
r107 43 106 0.0338756
r108 43 49 0.26
r109 36 117 9.32401e-05
r110 36 98 0.0416743
r111 35 114 0.039752
r112 34 110 0.0372033
r113 34 35 0.274969
r114 33 68 0.02
r115 33 71 0.376601
r116 33 68 0.0177715
r117 33 67 0.1978
r118 32 105 0.0388074
r119 32 55 0.22032
r120 32 105 0.0003
r121 32 51 0.24904
r122 24 26 257.95
r123 22 96 7.5254
r124 22 24 177.1
r125 21 101 7.5254
r126 21 26 84.7
r127 18 82 7.05129
r128 18 20 30.9928
r129 17 87 7.05129
r130 17 20 75.7603
r131 14 72 7.05129
r132 14 16 158.408
r133 13 77 7.05129
r134 13 16 110.197
.ends

.subckt PM_FULL_ADDER%CN 5 8 10 23 26 30 39
c10 39 0 0.0274519f
c11 38 0 0.0980604f
c12 36 0 0.098058f
c13 35 0 0.0980555f
c14 34 0 0.098058f
c15 33 0 0.0980555f
c16 32 0 0.00496f
c17 30 0 0.0744f
c18 26 0 0.03096f
c19 23 0 0.0263153f
c20 10 0 0.11524f
c21 8 0 0.134877f
c22 5 0 0.0378366f
r23 38 39 0.069476
r24 36 38 1.58158
r25 35 36 1.58158
r26 34 35 1.58158
r27 33 34 1.58158
r28 32 33 1.58158
r29 30 32 0.0446983
r30 29 30 1.20004
r31 25 26 9.6
r32 23 29 0.0446983
r33 16 23 0.20446
r34 16 25 0.19998
r35 8 10 257.95
r36 5 26 7.52669
r37 5 10 84.7
.ends

.subckt PM_FULL_ADDER%C 5 8 9 12 16 28 29 31 33 39 41 45 53 57
c19 57 0 0.0274519f
c20 56 0 0.103528f
c21 53 0 0.00618016f
c22 51 0 0.103528f
c23 50 0 0.103525f
c24 49 0 0.103528f
c25 48 0 0.103525f
c26 47 0 0.00496f
c27 45 0 0.0694016f
c28 41 0 0.0400619f
c29 39 0 0.03096f
c30 33 0 0.0111606f
c31 31 0 0.00248f
c32 29 0 0.03096f
c33 28 0 0.0260388f
c34 16 0 0.00502839f
c35 10 0 0.03096f
c36 9 0 0.0533166f
c37 8 0 0.05576f
c38 5 0 0.134157f
r39 56 57 0.069476
r40 51 56 1.6698
r41 50 51 1.6698
r42 49 50 1.6698
r43 48 49 1.6698
r44 47 48 1.6698
r45 45 47 0.0446983
r46 44 45 1.11942
r47 41 44 0.0446983
r48 38 53 0.15968
r49 38 39 9.6
r50 33 34 9.6
r51 31 33 0.36002
r52 28 29 9.6
r53 26 31 0.0446983
r54 26 28 0.52
r55 16 53 0.039901
r56 16 41 0.5662
r57 10 34 7.52412
r58 10 12 34.65
r59 9 39 7.52669
r60 9 12 84.7
r61 5 29 7.52669
r62 5 8 123.2
.ends

.subckt PM_FULL_ADDER%P 7 10 12 13 14 16 21 37 39 43 50 72 76 87 88
c18 82 0 0.00496f
c19 77 0 0.0420757f
c20 75 0 0.109972f
c21 72 0 0.0061442f
c22 68 0 0.0173588f
c23 52 0 0.0334788f
c24 51 0 0.109973f
c25 50 0 0.109971f
c26 49 0 0.109973f
c27 48 0 0.109971f
c28 47 0 0.109973f
c29 46 0 0.109971f
c30 45 0 0.00496f
c31 43 0 0.0971069f
c32 39 0 0.0172534f
c33 37 0 0.03096f
c34 23 0 0.0293075f
c35 21 0 0.00527908f
c36 14 0 0.00344f
c37 13 0 0.0791166f
c38 12 0 0.0206366f
c39 10 0 0.05576f
c40 7 0 0.153077f
r41 76 77 0.019735
r42 75 76 0.0790519
r43 69 88 7.36421
r44 68 69 10.4
r45 66 82 0.0338756
r46 66 68 0.24
r47 64 82 0.00880368
r48 60 77 0.0453544
r49 59 87 6.80984
r50 58 59 10.8
r51 55 87 6.80984
r52 54 58 0.2
r53 54 55 10.8
r54 52 82 0.0338756
r55 52 58 0.3
r56 51 75 1.77376
r57 50 51 1.77376
r58 49 50 1.77376
r59 48 49 1.77376
r60 47 48 1.77376
r61 46 47 1.77376
r62 45 46 1.77376
r63 42 45 0.0446983
r64 42 43 1.56628
r65 39 43 0.0446983
r66 36 72 0.1591
r67 36 37 9.6
r68 23 81 0.038728
r69 23 64 0.22044
r70 23 81 0.00042
r71 23 60 0.17104
r72 21 72 0.0391117
r73 21 39 0.198627
r74 14 16 92.4
r75 13 37 7.52669
r76 13 16 84.7
r77 11 14 4.30221
r78 11 12 46.2
r79 7 12 4.30221
r80 7 10 157.85
.ends

.subckt PM_FULL_ADDER%B 5 8 10 11 12 14 29 31 33 36
c18 36 0 0.00556016f
c19 33 0 0.00764745f
c20 31 0 0.00353928f
c21 29 0 0.03096f
c22 12 0 0.00344f
c23 11 0 0.0705166f
c24 10 0 0.0206366f
c25 8 0 0.05576f
c26 5 0 0.161677f
r27 31 33 0.00215945
r28 28 36 0.1497
r29 28 29 9.6
r30 17 31 0.0156853
r31 17 36 0.0266669
r32 17 33 0.0156518
r33 12 14 73.15
r34 11 29 7.5254
r35 11 14 84.7
r36 9 12 4.30221
r37 9 10 46.2
r38 5 10 4.30221
r39 5 8 177.1
.ends

.subckt PM_FULL_ADDER%AN 5 8 9 10 12 15 25 26 28 30 33 36 40
c19 36 0 0.03096f
c20 33 0 0.00589372f
c21 30 0 0.0111606f
c22 28 0 0.00248f
c23 26 0 0.03096f
c24 25 0 0.0260388f
c25 15 0 0.00722015f
c26 10 0 0.03096f
c27 9 0 0.0533166f
c28 8 0 0.05576f
c29 5 0 0.134157f
r30 35 36 9.6
r31 33 35 0.15508
r32 30 31 9.6
r33 28 30 0.36
r34 25 26 9.6
r35 23 28 0.0446983
r36 23 25 0.52
r37 15 40 0.000212108
r38 15 33 0.0411722
r39 10 31 7.5254
r40 10 12 34.65
r41 9 36 7.5254
r42 9 12 84.7
r43 5 26 7.5254
r44 5 8 123.2
.ends

.subckt PM_FULL_ADDER%17 2 3 11 14 22 25 26 28 29
c7 22 0 0.0433988f
c8 14 0 0.00372f
c9 11 0 0.0433988f
c10 3 0 0.00372f
c11 2 0 0.0185981f
r12 19 22 0.26
r13 17 29 1.40625
r14 17 28 1.40625
r15 17 22 10.8
r16 17 19 10.8
r17 16 19 0.26
r18 16 17 10.8
r19 14 16 0.14002
r20 8 11 0.26
r21 6 26 1.40625
r22 6 25 1.40625
r23 6 11 10.8
r24 6 8 10.8
r25 5 8 0.26
r26 5 6 10.8
r27 3 5 0.14002
r28 2 14 0.0458951
r29 1 3 0.0458951
r30 1 2 0.64
.ends

.subckt PM_FULL_ADDER%18 3 6 7 9 13 32 36 38 41 44 46 49 50 54 55 57 58
c18 50 0 0.00496f
c19 49 0 0.00496f
c20 46 0 0.0483588f
c21 44 0 0.00496f
c22 41 0 0.0483588f
c23 38 0 0.0247975f
c24 36 0 0.0247975f
c25 32 0 0.0359588f
c26 13 0 0.0508388f
c27 9 0 0.0326783f
c28 7 0 0.03096f
c29 6 0 0.057f
c30 3 0 0.0584766f
r31 47 58 7.36421
r32 46 47 10.4
r33 44 46 0.74002
r34 42 57 7.36421
r35 41 42 10.4
r36 39 49 0.00880368
r37 39 41 0.74002
r38 38 44 0.0446983
r39 37 50 0.0338756
r40 37 38 0.48
r41 36 50 0.0338756
r42 35 49 0.0338756
r43 35 36 0.48
r44 32 33 9.6
r45 30 49 0.0338756
r46 30 32 0.64
r47 19 22 0.26
r48 16 55 1.40625
r49 16 54 1.40625
r50 16 22 10.8
r51 16 19 10.8
r52 15 19 0.26
r53 15 16 10.8
r54 13 50 0.00880368
r55 13 22 0.25998
r56 7 33 7.52412
r57 7 9 50.05
r58 3 33 7.52669
r59 3 6 65.45
.ends

.subckt PM_FULL_ADDER%19 5 18 21 22 23
c4 21 0 0.0235588f
c5 18 0 0.0173588f
c6 5 0 0.0334788f
r7 19 23 7.36421
r8 18 19 10.4
r9 16 21 0.0338756
r10 16 18 0.24002
r11 12 22 6.80984
r12 11 12 10.8
r13 8 22 6.80984
r14 7 11 0.2
r15 7 8 10.8
r16 5 21 0.0338756
r17 5 11 0.29998
.ends

.subckt PM_FULL_ADDER%20 12 14
c6 14 0 0.215136f
c7 12 0 0.146893f
r8 12 14 230.725
.ends

.subckt PM_FULL_ADDER%21 2 3 11 14 22 25 26 28 29
c9 22 0 0.0459593f
c10 14 0 0.00393948f
c11 11 0 0.0459593f
c12 3 0 0.00393948f
c13 2 0 0.0179397f
r14 19 22 0.245515
r15 17 29 1.37859
r16 17 28 1.37859
r17 17 22 9.66011
r18 17 19 9.66011
r19 16 19 0.245515
r20 16 17 9.66011
r21 14 16 0.1322
r22 8 11 0.245515
r23 6 26 1.37859
r24 6 25 1.37859
r25 6 11 9.66011
r26 6 8 9.66011
r27 5 8 0.245515
r28 5 6 9.66011
r29 3 5 0.1322
r30 2 14 0.0464157
r31 1 3 0.0464157
r32 1 2 0.633707
.ends

.subckt PM_FULL_ADDER%22 2 3 11 14 22 25 26 28 29
c9 22 0 0.0433988f
c10 14 0 0.00372f
c11 11 0 0.0433988f
c12 3 0 0.00372f
c13 2 0 0.0185981f
r14 19 22 0.26
r15 17 29 1.40625
r16 17 28 1.40625
r17 17 22 10.8
r18 17 19 10.8
r19 16 19 0.26
r20 16 17 10.8
r21 14 16 0.14
r22 8 11 0.26
r23 6 26 1.40625
r24 6 25 1.40625
r25 6 11 10.8
r26 6 8 10.8
r27 5 8 0.26
r28 5 6 10.8
r29 3 5 0.14
r30 2 14 0.0458951
r31 1 3 0.0458951
r32 1 2 0.64
.ends

.subckt PM_FULL_ADDER%23 6 9 13 32 36 38 41 44 46 49 50 54 55 57 58
c14 50 0 0.00496f
c15 49 0 0.00496f
c16 46 0 0.0483588f
c17 44 0 0.00496f
c18 41 0 0.0483588f
c19 38 0 0.0247975f
c20 36 0 0.0247975f
c21 32 0 0.0359588f
c22 13 0 0.0508388f
c23 9 0 0.0326783f
c24 7 0 0.03096f
c25 6 0 0.057f
c26 3 0 0.0584766f
r27 47 58 7.36421
r28 46 47 10.4
r29 44 46 0.74
r30 42 57 7.36421
r31 41 42 10.4
r32 39 49 0.00880368
r33 39 41 0.74
r34 38 44 0.0446983
r35 37 50 0.0338756
r36 37 38 0.48
r37 36 50 0.0338756
r38 35 49 0.0338756
r39 35 36 0.48
r40 32 33 9.6
r41 30 49 0.0338756
r42 30 32 0.64
r43 19 22 0.26
r44 16 55 1.40625
r45 16 54 1.40625
r46 16 22 10.8
r47 16 19 10.8
r48 15 19 0.26
r49 15 16 10.8
r50 13 50 0.00880368
r51 13 22 0.26
r52 7 33 7.5254
r53 7 9 50.05
r54 3 33 7.5254
r55 3 6 65.45
.ends

.subckt PM_FULL_ADDER%25 1 2
r0 1 2 13.2
.ends

.subckt PM_FULL_ADDER%26 1 2
r0 1 2 13.2
.ends

.subckt PM_FULL_ADDER%27 1 2
r0 1 2 13.2
.ends

.subckt PM_FULL_ADDER%28 1 2
r0 1 2 12.9404
.ends

.subckt PM_FULL_ADDER%29 1 2
r0 1 2 12.9404
.ends

.subckt PM_FULL_ADDER%30 1 2
r0 1 2 13.2
.ends

.subckt PM_FULL_ADDER%31 1 2
r0 1 2 13.2
.ends

.subckt PM_FULL_ADDER%32 1 2
r0 1 2 2.8125
.ends

