* File: full_adder.pex.netlist.pex
* Created: Sun Dec 18 22:29:07 2022
* Program "Calibre xRC"
* Version "v2012.2_36.25"
* Nominal Temperature: 27C
* Circuit Temperature: 27C
* 
.subckt PM_FULL_ADDER%X14/9 2 25 26 28 29
c2 22 0 0.0433988f
c3 14 0 0.00372f
c4 11 0 0.0433988f
c5 3 0 0.00372f
c6 2 0 0.0185981f
r7 19 22 0.26
r8 17 29 1.40625
r9 17 28 1.40625
r10 17 22 10.8
r11 17 19 10.8
r12 16 19 0.26
r13 16 17 10.8
r14 14 16 0.14
r15 8 11 0.26
r16 6 26 1.40625
r17 6 25 1.40625
r18 6 11 10.8
r19 6 8 10.8
r20 5 8 0.26
r21 5 6 10.8
r22 3 5 0.14
r23 2 14 0.0458951
r24 1 3 0.0458951
r25 1 2 0.64
.ends

.subckt PM_FULL_ADDER%X14/10 1 2
r0 1 2 13.2
.ends

.subckt PM_FULL_ADDER%X14/11 1 2
r0 1 2 13.2
.ends

.subckt PM_FULL_ADDER%X15/9 2 25 26 28 29
c2 22 0 0.0433988f
c3 14 0 0.00372f
c4 11 0 0.0433988f
c5 3 0 0.00372f
c6 2 0 0.0185981f
r7 19 22 0.26
r8 17 29 1.40625
r9 17 28 1.40625
r10 17 22 10.8
r11 17 19 10.8
r12 16 19 0.26
r13 16 17 10.8
r14 14 16 0.14
r15 8 11 0.26
r16 6 26 1.40625
r17 6 25 1.40625
r18 6 11 10.8
r19 6 8 10.8
r20 5 8 0.26
r21 5 6 10.8
r22 3 5 0.14
r23 2 14 0.0458951
r24 1 3 0.0458951
r25 1 2 0.64
.ends

.subckt PM_FULL_ADDER%X15/10 1 2
r0 1 2 13.2
.ends

.subckt PM_FULL_ADDER%X15/11 1 2
r0 1 2 13.2
.ends

.subckt PM_FULL_ADDER%X16/9 2 25 26 28 29
c2 22 0 0.0433988f
c3 14 0 0.00372f
c4 11 0 0.0433988f
c5 3 0 0.00372f
c6 2 0 0.0185981f
r7 19 22 0.26
r8 17 29 1.40625
r9 17 28 1.40625
r10 17 22 10.8
r11 17 19 10.8
r12 16 19 0.26
r13 16 17 10.8
r14 14 16 0.14
r15 8 11 0.26
r16 6 26 1.40625
r17 6 25 1.40625
r18 6 11 10.8
r19 6 8 10.8
r20 5 8 0.26
r21 5 6 10.8
r22 3 5 0.14
r23 2 14 0.0458951
r24 1 3 0.0458951
r25 1 2 0.64
.ends

.subckt PM_FULL_ADDER%X16/10 1 2
r0 1 2 13.2
.ends

.subckt PM_FULL_ADDER%X16/11 1 2
r0 1 2 13.2
.ends

.subckt PM_FULL_ADDER%COUTN 1 2 4 5 7 29 31 47 48 50 51 59
c10 68 0 0.06372f
c11 67 0 0.00775f
c12 61 0 0.0266588f
c13 59 0 0.655159f
c14 43 0 0.00496f
c15 42 0 0.00496f
c16 39 0 0.0483588f
c17 37 0 0.00496f
c18 34 0 0.0483588f
c19 31 0 0.0247975f
c20 29 0 0.0247975f
c21 25 0 0.0359588f
c22 10 0 0.0508388f
c23 7 0 0.0326783f
c24 5 0 0.03096f
c25 2 0 0.03096f
c26 1 0 0.0584766f
r27 67 68 4.29
r28 62 67 0.0434303
r29 61 62 0.05
r30 56 68 0.0380015
r31 56 59 1.09375
r32 40 51 7.36421
r33 39 40 10.4
r34 37 39 0.74
r35 35 50 7.36421
r36 34 35 10.4
r37 32 42 0.00880368
r38 32 34 0.74
r39 31 37 0.0446983
r40 30 43 0.0338756
r41 30 31 0.48
r42 29 43 0.0338756
r43 28 42 0.0338756
r44 28 29 0.48
r45 25 26 9.6
r46 23 42 0.0338756
r47 23 25 0.63998
r48 21 61 0.44002
r49 21 22 9.6
r50 16 19 0.26
r51 13 48 1.40625
r52 13 47 1.40625
r53 13 19 10.8
r54 13 16 10.8
r55 12 16 0.26
r56 12 13 10.8
r57 10 43 0.00880368
r58 10 19 0.26
r59 5 26 7.5254
r60 5 7 50.05
r61 2 22 7.5254
r62 2 4 65.45
r63 1 26 7.5254
r64 1 4 65.45
.ends

.subckt PM_FULL_ADDER%CN 1 4 6 7 10 32 65
c9 65 0 0.979068f
c10 59 0 0.00775f
c11 49 0 0.0254188f
c12 40 0 0.88638f
c13 39 0 0.886358f
c14 38 0 0.88638f
c15 37 0 0.886358f
c16 36 0 0.88638f
c17 35 0 0.886358f
c18 34 0 0.04488f
c19 32 0 0.695618f
c20 27 0 0.06372f
c21 16 0 0.03096f
c22 8 0 0.00344f
c23 7 0 0.0705166f
c24 6 0 0.0206366f
c25 4 0 0.05576f
c26 1 0 0.161677f
r27 49 59 0.0434463
r28 44 49 0.27
r29 40 65 1.3825
r30 39 40 1.3825
r31 38 39 1.3825
r32 37 38 1.3825
r33 36 37 1.3825
r34 35 36 1.3825
r35 34 35 1.3825
r36 32 34 0.039111
r37 27 59 4.29
r38 27 32 1.225
r39 15 44 0.2
r40 15 16 9.6
r41 8 10 73.15
r42 7 16 7.5254
r43 7 10 84.7
r44 5 8 4.30221
r45 5 6 46.2
r46 1 6 4.30221
r47 1 4 177.1
.ends

.subckt PM_FULL_ADDER%COUT 2 13 16 17 18 23 32 36
c8 44 0 0.00775f
c9 41 0 0.138049f
c10 40 0 0.00775f
c11 36 0 0.00619876f
c12 32 0 0.0192175f
c13 23 0 0.585428f
c14 16 0 0.00496f
c15 13 0 0.0173588f
c16 2 0 0.0334788f
r17 40 41 4.29
r18 37 44 0.0434303
r19 33 40 0.0434463
r20 33 36 0.06
r21 32 37 0.05
r22 27 41 0.0379875
r23 23 44 4.29
r24 23 27 0.95375
r25 21 32 0.26
r26 16 21 0.00880368
r27 14 18 7.36311
r28 13 14 10.4
r29 11 16 0.0338756
r30 11 13 0.24
r31 9 17 6.8089
r32 8 9 10.8
r33 5 17 6.8089
r34 4 8 0.2
r35 4 5 10.8
r36 2 16 0.0338756
r37 2 8 0.3
.ends

.subckt PM_FULL_ADDER%C 4 6 17 20 22 23 26 46 62 89
c12 91 0 0.06372f
c13 89 0 0.121475f
c14 86 0 0.06372f
c15 85 0 0.00775f
c16 80 0 0.0297588f
c17 75 0 0.113725f
c18 74 0 0.113723f
c19 73 0 0.113725f
c20 72 0 0.113723f
c21 71 0 0.113725f
c22 70 0 0.113723f
c23 69 0 0.00496f
c24 67 0 0.0309975f
c25 62 0 0.0650988f
c26 46 0 0.538538f
c27 32 0 0.03096f
c28 24 0 0.00344f
c29 23 0 0.0705166f
c30 22 0 0.0206366f
c31 20 0 0.05576f
c32 17 0 0.161677f
c33 12 0 0.03096f
c34 6 0 0.11524f
c35 4 0 0.134877f
c36 1 0 0.0378366f
r37 89 91 4.29
r38 85 86 4.29
r39 80 85 0.0434303
r40 75 89 1.83428
r41 74 75 1.83428
r42 73 74 1.83428
r43 72 73 1.83428
r44 71 72 1.83428
r45 70 71 1.83428
r46 69 70 1.83428
r47 67 69 0.0446983
r48 66 67 0.5
r49 62 66 0.0446983
r50 56 80 0.34
r51 54 62 0.83
r52 46 91 0.0380015
r53 45 86 0.0380015
r54 45 46 0.98
r55 31 56 0.2
r56 31 32 9.6
r57 24 26 73.15
r58 23 32 7.5254
r59 23 26 84.7
r60 21 24 4.30221
r61 21 22 46.2
r62 17 22 4.30221
r63 17 20 177.1
r64 11 54 0.2
r65 11 12 9.6
r66 4 6 257.95
r67 1 12 7.5254
r68 1 6 84.7
.ends

.subckt PM_FULL_ADDER%VDD 1 15 56 57 58 68 82 123 124 125 135 149 190 191 192
+ 208 209 226 228 232 238 240 241 247 249 251 253 254 255 258 259 262 271 281
+ 348 349 351 352 353
c44 376 0 0.392649f
c45 375 0 0.409546f
c46 345 0 0.00775f
c47 330 0 0.06076f
c48 328 0 0.00496f
c49 327 0 0.00775f
c50 313 0 0.117176f
c51 311 0 0.01736f
c52 304 0 0.00496f
c53 303 0 0.0322375f
c54 301 0 0.0136375f
c55 296 0 0.0260375f
c56 293 0 0.0508388f
c57 285 0 0.00496f
c58 283 0 0.0322375f
c59 281 0 0.0495975f
c60 276 0 0.0210775f
c61 273 0 0.02945f
c62 266 0 0.419067f
c63 264 0 0.256186f
c64 262 0 0.27186f
c65 261 0 0.320696f
c66 260 0 0.0472842f
c67 259 0 0.226005f
c68 258 0 0.0314269f
c69 257 0 0.237115f
c70 256 0 0.0472842f
c71 255 0 0.336981f
c72 254 0 0.04629f
c73 253 0 0.629943f
c74 252 0 0.0472842f
c75 251 0 0.556296f
c76 250 0 0.0472842f
c77 249 0 0.521288f
c78 248 0 0.0472842f
c79 247 0 0.323329f
c80 246 0 0.0472842f
c81 241 0 0.419503f
c82 240 0 0.454856f
c83 238 0 0.532613f
c84 234 0 0.855711f
c85 233 0 0.479443f
c86 232 0 0.434276f
c87 230 0 0.526703f
c88 228 0 1.04234f
c89 226 0 0.5066f
c90 220 0 0.0546639f
c91 187 0 0.00496f
c92 186 0 0.0173588f
c93 185 0 0.00775f
c94 183 0 0.139732f
c95 171 0 0.117176f
c96 169 0 0.01736f
c97 166 0 0.0644788f
c98 158 0 0.0062f
c99 150 0 0.0471175f
c100 149 0 0.0545575f
c101 146 0 0.0223175f
c102 139 0 0.0359575f
c103 120 0 0.00496f
c104 119 0 0.0173588f
c105 118 0 0.00775f
c106 104 0 0.117176f
c107 102 0 0.01736f
c108 99 0 0.0644788f
c109 91 0 0.0062f
c110 83 0 0.0471175f
c111 82 0 0.0545575f
c112 79 0 0.0223175f
c113 72 0 0.0359575f
c114 53 0 0.00496f
c115 52 0 0.0173588f
c116 51 0 0.00775f
c117 49 0 0.19719f
c118 37 0 0.117176f
c119 35 0 0.01736f
c120 32 0 0.0644788f
c121 24 0 0.0062f
c122 16 0 0.0471175f
c123 15 0 0.0545575f
c124 12 0 0.0223175f
c125 5 0 0.0359575f
r126 375 376 0.35245
r127 347 352 5.6964
r128 346 347 10.8
r129 342 345 0.0434303
r130 336 339 10.4
r131 336 337 10.4
r132 334 351 6.80984
r133 331 351 6.80984
r134 330 336 0.0571429
r135 330 334 10.8
r136 330 331 10.8
r137 324 327 0.0434143
r138 319 322 10.4
r139 319 320 10.4
r140 317 353 6.80984
r141 314 353 6.80984
r142 313 319 0.0571429
r143 313 317 10.8
r144 313 314 10.8
r145 311 346 0.0241726
r146 311 319 0.0857143
r147 310 352 5.6964
r148 309 310 10.8
r149 307 352 5.6964
r150 306 309 0.26
r151 306 307 10.8
r152 304 306 0.24
r153 303 346 0.0414387
r154 303 309 0.02
r155 301 302 5.2
r156 299 304 0.0446983
r157 299 301 0.2
r158 298 301 0.02
r159 296 298 0.0446983
r160 296 345 0.28
r161 290 293 0.26
r162 288 349 1.40625
r163 288 348 1.40625
r164 288 293 10.8
r165 288 290 10.8
r166 287 290 0.26
r167 287 288 10.8
r168 285 287 0.26002
r169 284 328 0.0338756
r170 283 336 0.0541827
r171 283 284 0.52
r172 279 285 0.0446983
r173 279 281 0.78
r174 278 328 0.00880368
r175 278 281 0.1
r176 276 328 0.0338756
r177 276 327 0.34
r178 271 273 0.232016
r179 262 376 0.35245
r180 260 261 0.237414
r181 258 259 0.194101
r182 256 257 0.175543
r183 255 266 0.024022
r184 254 255 0.286904
r185 252 265 0.024022
r186 252 253 0.51583
r187 251 264 0.024022
r188 250 251 0.491085
r189 248 263 0.024022
r190 248 249 0.4354
r191 247 262 0.024022
r192 246 247 0.40446
r193 242 260 0.024022
r194 240 241 0.394293
r195 239 258 0.024022
r196 239 240 0.394293
r197 238 261 0.024022
r198 238 241 0.394293
r199 235 256 0.024022
r200 234 259 0.024022
r201 232 233 0.354917
r202 231 254 0.024022
r203 231 232 0.354917
r204 230 257 0.024022
r205 230 233 0.354917
r206 229 250 0.024022
r207 228 253 0.024022
r208 228 229 0.771627
r209 227 246 0.024022
r210 226 249 0.024022
r211 226 227 0.377878
r212 223 266 0.160501
r213 223 265 0.143001
r214 223 342 4.29
r215 222 264 0.112376
r216 222 263 0.0511262
r217 222 324 4.29
r218 220 273 4.29
r219 209 322 5.5
r220 209 320 5.5
r221 209 302 3.3
r222 208 339 5.5011
r223 208 337 5.4989
r224 208 281 3.46667
r225 189 190 5.6964
r226 188 189 10.8
r227 183 242 0.0686262
r228 182 185 0.0434143
r229 182 183 4.29
r230 177 180 10.4
r231 177 178 10.4
r232 175 192 6.81078
r233 172 192 6.81078
r234 171 177 0.0571371
r235 171 175 10.8
r236 171 172 10.8
r237 169 188 0.0241726
r238 169 177 0.0857143
r239 167 191 5.6964
r240 166 167 10.8
r241 164 191 5.6964
r242 163 166 0.26
r243 163 164 10.8
r244 161 191 5.6964
r245 160 163 0.26
r246 160 161 10.8
r247 158 160 0.48
r248 157 190 5.6964
r249 156 157 10.8
r250 154 190 5.6964
r251 153 156 0.26
r252 153 154 10.8
r253 151 187 0.00880368
r254 151 153 0.48
r255 150 188 0.0414387
r256 150 156 0.02
r257 149 158 0.0446983
r258 148 187 0.0338756
r259 148 149 1.04
r260 146 147 2.6
r261 144 187 0.0338756
r262 144 146 0.34
r263 143 186 0.0338756
r264 143 146 0.02
r265 139 186 0.00880368
r266 139 185 0.58
r267 135 180 5.5
r268 135 178 5.5
r269 135 147 3.85
r270 122 123 5.6964
r271 121 122 10.8
r272 116 234 0.501742
r273 116 235 0.147376
r274 115 118 0.0434143
r275 115 116 4.29
r276 110 113 10.4
r277 110 111 10.4
r278 108 125 6.81078
r279 105 125 6.81078
r280 104 110 0.0571371
r281 104 108 10.8
r282 104 105 10.8
r283 102 121 0.0241726
r284 102 110 0.0857143
r285 100 124 5.6964
r286 99 100 10.8
r287 97 124 5.6964
r288 96 99 0.26
r289 96 97 10.8
r290 94 124 5.6964
r291 93 96 0.26
r292 93 94 10.8
r293 91 93 0.48
r294 90 123 5.6964
r295 89 90 10.8
r296 87 123 5.6964
r297 86 89 0.26
r298 86 87 10.8
r299 84 120 0.00880368
r300 84 86 0.48
r301 83 121 0.0414387
r302 83 89 0.02
r303 82 91 0.0446983
r304 81 120 0.0338756
r305 81 82 1.04
r306 79 80 2.6
r307 77 120 0.0338756
r308 77 79 0.34
r309 76 119 0.0338756
r310 76 79 0.02
r311 72 119 0.00880368
r312 72 118 0.58
r313 68 113 5.5
r314 68 111 5.5
r315 68 80 3.85
r316 55 56 5.6964
r317 54 55 10.8
r318 49 375 0.35245
r319 49 220 0.14875
r320 48 51 0.0434143
r321 48 49 4.29
r322 43 46 10.4
r323 43 44 10.4
r324 41 58 6.81078
r325 38 58 6.81078
r326 37 43 0.0571371
r327 37 41 10.8
r328 37 38 10.8
r329 35 54 0.0241726
r330 35 43 0.0857143
r331 33 57 5.6964
r332 32 33 10.8
r333 30 57 5.6964
r334 29 32 0.26
r335 29 30 10.8
r336 27 57 5.6964
r337 26 29 0.26
r338 26 27 10.8
r339 24 26 0.48
r340 23 56 5.6964
r341 22 23 10.8
r342 20 56 5.6964
r343 19 22 0.26
r344 19 20 10.8
r345 17 53 0.00880368
r346 17 19 0.48
r347 16 54 0.0414387
r348 16 22 0.02
r349 15 24 0.0446983
r350 14 53 0.0338756
r351 14 15 1.04
r352 12 13 2.6
r353 10 53 0.0338756
r354 10 12 0.34
r355 9 52 0.0338756
r356 9 12 0.02
r357 5 52 0.00880368
r358 5 51 0.58
r359 1 46 5.5
r360 1 44 5.5
r361 1 13 3.85
.ends

.subckt PM_FULL_ADDER%SUM 17 18 29
c0 31 0 0.05456f
c1 30 0 0.0570388f
c2 26 0 0.0595175f
c3 25 0 0.0464975f
c4 16 0 0.00496f
c5 13 0 0.0173588f
c6 2 0 0.0334788f
r7 30 31 0.88
r8 29 30 0.88
r9 26 32 0.0446983
r10 26 31 0.88
r11 25 32 0.49
r12 21 25 0.26
r13 16 21 0.00880368
r14 14 18 7.36311
r15 13 14 10.4
r16 11 16 0.0338756
r17 11 13 0.24
r18 9 17 6.8089
r19 8 9 10.8
r20 5 17 6.8089
r21 4 8 0.2
r22 4 5 10.8
r23 2 16 0.0338756
r24 2 8 0.3
.ends

.subckt PM_FULL_ADDER%7 1 4 6 7 8 10 13 20 36 58 62 80 81 82
c9 72 0 0.00496f
c10 71 0 0.00906487f
c11 70 0 0.00453344f
c12 69 0 0.0172566f
c13 68 0 0.0024785f
c14 65 0 0.0247988f
c15 62 0 0.00991752f
c16 58 0 0.0508388f
c17 45 0 0.0557988f
c18 38 0 0.00496f
c19 37 0 0.0954775f
c20 36 0 0.0845308f
c21 33 0 0.0109626f
c22 30 0 0.03096f
c23 27 0 0.0225305f
c24 20 0 0.0533188f
c25 13 0 0.0206383f
c26 11 0 0.03096f
c27 8 0 0.03096f
c28 7 0 0.0636366f
c29 6 0 0.07912f
c30 4 0 0.106717f
c31 1 0 0.0326766f
r32 70 71 0.146317
r33 68 69 0.27849
r34 66 82 6.6
r35 66 81 6.6
r36 65 66 10.4
r37 63 72 0.00880368
r38 63 65 0.36
r39 61 72 0.0338756
r40 61 62 0.2
r41 58 59 9.6
r42 56 72 0.0338756
r43 56 58 0.92
r44 55 80 5.6964
r45 54 55 10.8
r46 52 80 5.6964
r47 51 54 0.26
r48 51 52 10.8
r49 48 80 5.6964
r50 47 51 0.26
r51 47 48 10.8
r52 45 62 0.0446983
r53 45 54 0.26
r54 42 43 9.6
r55 37 39 0.0446983
r56 37 38 1.46
r57 36 70 0.0464297
r58 35 38 0.0446983
r59 35 36 1.36344
r60 34 68 0.0274399
r61 33 71 0.0274399
r62 33 34 0.13688
r63 29 30 9.6
r64 27 69 0.0274399
r65 20 42 0.44
r66 20 39 0.48
r67 19 27 0.06344
r68 19 29 0.31998
r69 11 59 7.5254
r70 11 13 23.1
r71 8 43 7.5254
r72 8 10 77
r73 7 59 7.5254
r74 7 10 65.45
r75 4 6 177.1
r76 1 30 7.52669
r77 1 6 73.15
.ends

.subckt PM_FULL_ADDER%B 1 4 8 15 18 20 33 36 38 39 42 64 66 67 70 72 121 133
c19 139 0 0.0093f
c20 135 0 0.0093f
c21 133 0 0.031f
c22 121 0 0.0843188f
c23 114 0 0.03096f
c24 111 0 0.0880388f
c25 108 0 0.0582788f
c26 105 0 0.00496f
c27 104 0 0.0142575f
c28 100 0 0.03096f
c29 97 0 0.0508388f
c30 72 0 0.08256f
c31 70 0 0.0739566f
c32 68 0 0.03096f
c33 67 0 0.0326766f
c34 66 0 0.07912f
c35 64 0 0.106717f
c36 61 0 0.0326766f
c37 48 0 0.03096f
c38 45 0 0.0365788f
c39 40 0 0.00344f
c40 39 0 0.0705166f
c41 38 0 0.0206366f
c42 34 0 0.03096f
c43 33 0 0.161677f
c44 24 0 0.03096f
c45 20 0 0.0111606f
c46 18 0 0.00248f
c47 16 0 0.03096f
c48 15 0 0.0260388f
c49 11 0 0.0427788f
c50 6 0 0.03096f
c51 5 0 0.0533166f
c52 2 0 0.03096f
c53 1 0 0.134157f
r54 139 141 0.07
r55 135 137 0.07
r56 125 141 0.0046983
r57 121 139 0.0046983
r58 117 135 0.0046983
r59 113 114 9.6
r60 111 137 0.0046983
r61 108 109 9.6
r62 103 105 0.0446983
r63 103 104 0.23
r64 99 100 9.6
r65 97 104 0.0446983
r66 89 133 0.32
r67 88 125 0.23
r68 87 121 1.22
r69 86 117 0.33
r70 85 111 1.28
r71 85 113 0.2
r72 84 108 0.14
r73 84 105 0.86
r74 83 97 0.48
r75 83 99 0.31998
r76 70 72 184.8
r77 68 109 7.5254
r78 68 70 165.55
r79 67 114 7.5254
r80 67 72 73.15
r81 64 66 177.1
r82 61 100 7.52669
r83 61 66 73.15
r84 47 89 0.2
r85 47 48 9.6
r86 45 88 0.42
r87 45 46 9.6
r88 40 42 73.15
r89 39 48 7.5254
r90 39 42 84.7
r91 37 40 4.30221
r92 37 38 46.2
r93 34 46 7.5254
r94 34 36 177.1
r95 33 38 4.30221
r96 33 36 177.1
r97 23 87 0.2
r98 23 24 9.6
r99 20 21 9.6
r100 18 20 0.36
r101 15 16 9.6
r102 13 18 0.0446983
r103 13 15 0.52
r104 11 86 0.42
r105 11 12 9.6
r106 6 21 7.5254
r107 6 8 34.65
r108 5 24 7.5254
r109 5 8 84.7
r110 2 12 7.5254
r111 2 4 177.1
r112 1 16 7.5254
r113 1 4 123.2
.ends

.subckt PM_FULL_ADDER%A 4 6 20 22 44 46 47 50 52 105 117
c9 121 0 0.0093f
c10 120 0 0.00558f
c11 119 0 0.0167388f
c12 117 0 0.031f
c13 105 0 0.0774988f
c14 101 0 0.00496f
c15 100 0 0.0260375f
c16 97 0 0.0353375f
c17 94 0 0.03096f
c18 88 0 0.0384388f
c19 85 0 0.00496f
c20 84 0 0.0142575f
c21 80 0 0.03096f
c22 77 0 0.0706788f
c23 52 0 0.08256f
c24 50 0 0.0739566f
c25 48 0 0.03096f
c26 47 0 0.0326766f
c27 46 0 0.07912f
c28 44 0 0.106717f
c29 41 0 0.0326766f
c30 28 0 0.03096f
c31 25 0 0.0433988f
c32 22 0 0.11524f
c33 20 0 0.0791166f
c34 18 0 0.03096f
c35 17 0 0.0378366f
c36 12 0 0.03096f
c37 9 0 0.0787388f
c38 6 0 0.11524f
c39 4 0 0.0791166f
c40 2 0 0.03096f
c41 1 0 0.0378366f
r42 121 123 0.07
r43 119 120 0.08
r44 109 123 0.0046983
r45 105 121 0.0046983
r46 100 101 0.0446983
r47 99 100 0.42
r48 97 99 0.0446983
r49 97 120 0.49
r50 93 94 9.6
r51 88 89 9.6
r52 83 85 0.0446983
r53 83 84 0.23
r54 79 80 9.6
r55 77 84 0.0446983
r56 69 117 0.32
r57 68 109 0.34
r58 67 105 1.11
r59 66 101 0.91
r60 65 119 0.13
r61 65 93 0.2
r62 64 88 0.14
r63 64 85 0.54
r64 63 77 0.8
r65 63 79 0.31998
r66 50 52 184.8
r67 48 89 7.5254
r68 48 50 165.55
r69 47 94 7.5254
r70 47 52 73.15
r71 44 46 177.1
r72 41 80 7.52669
r73 41 46 73.15
r74 27 69 0.2
r75 27 28 9.6
r76 25 68 0.42
r77 25 26 9.6
r78 20 22 257.95
r79 18 26 7.5254
r80 18 20 177.1
r81 17 28 7.5254
r82 17 22 84.7
r83 11 67 0.2
r84 11 12 9.6
r85 9 66 0.42
r86 9 10 9.6
r87 4 6 257.95
r88 2 10 7.5254
r89 2 4 177.1
r90 1 12 7.5254
r91 1 6 84.7
.ends

.subckt PM_FULL_ADDER%10 4 7 36 55 56 57
c4 51 0 0.00496f
c5 49 0 0.00992f
c6 44 0 0.0185988f
c7 42 0 0.00496f
c8 39 0 0.0185988f
c9 36 0 0.0396775f
c10 34 0 0.0161175f
c11 30 0 0.0185988f
c12 17 0 0.0545588f
c13 7 0 0.0326783f
c14 5 0 0.03096f
c15 4 0 0.057f
c16 1 0 0.0584766f
r17 47 49 0.08
r18 45 57 7.36421
r19 44 45 10.4
r20 42 44 0.26002
r21 40 56 7.36421
r22 39 40 10.4
r23 37 51 0.02
r24 37 39 0.26002
r25 36 42 0.0446983
r26 35 51 0.02
r27 35 36 0.76
r28 34 51 0.02
r29 33 49 0.0046983
r30 33 34 0.26
r31 30 31 9.6
r32 28 47 0.0046983
r33 28 30 0.36
r34 27 55 5.6964
r35 26 27 10.8
r36 24 55 5.6964
r37 23 26 0.26
r38 23 24 10.8
r39 20 55 5.6964
r40 19 23 0.26
r41 19 20 10.8
r42 17 51 0.02
r43 17 26 0.31998
r44 5 31 7.52412
r45 5 7 50.05
r46 1 31 7.52669
r47 1 4 65.45
.ends

.subckt PM_FULL_ADDER%11 24 25 26 28
c2 24 0 0.0247975f
c3 12 0 0.0471188f
c4 1 0 0.0471188f
r5 23 24 0.48
r6 22 28 5.6964
r7 21 22 10.8
r8 19 28 5.6964
r9 18 21 0.26
r10 18 19 10.8
r11 15 28 5.6964
r12 14 18 0.26
r13 14 15 10.8
r14 12 24 0.0446983
r15 12 21 0.11998
r16 7 10 0.26
r17 4 26 1.40625
r18 4 25 1.40625
r19 4 10 10.8
r20 4 7 10.8
r21 3 7 0.26
r22 3 4 10.8
r23 1 23 0.0446983
r24 1 10 0.11998
.ends

.subckt PM_FULL_ADDER%12 1 4 8 15 18 20 42 47 53 54 76 77
c10 75 0 0.00496f
c11 72 0 0.0173588f
c12 59 0 0.0334788f
c13 58 0 0.0434f
c14 57 0 0.0433975f
c15 56 0 0.00496f
c16 55 0 0.0483575f
c17 54 0 0.04216f
c18 53 0 0.0421575f
c19 52 0 0.0421575f
c20 47 0 0.0681988f
c21 42 0 0.0297575f
c22 24 0 0.03096f
c23 20 0 0.0111606f
c24 18 0 0.00248f
c25 16 0 0.03096f
c26 15 0 0.0260388f
c27 6 0 0.03096f
c28 5 0 0.0533166f
c29 4 0 0.05576f
c30 1 0 0.134157f
r31 73 77 7.36421
r32 72 73 10.4
r33 70 75 0.0338756
r34 70 72 0.24002
r35 68 75 0.00880368
r36 66 76 6.80984
r37 65 66 10.8
r38 62 76 6.80984
r39 61 65 0.2
r40 61 62 10.8
r41 59 75 0.0338756
r42 59 65 0.29998
r43 57 58 0.7
r44 56 57 0.7
r45 55 67 0.0446983
r46 55 58 0.7
r47 53 54 0.68
r48 52 54 0.68
r49 51 56 0.0446983
r50 51 53 0.68
r51 47 52 0.0446983
r52 42 68 0.26
r53 42 67 0.22
r54 41 47 0.88
r55 23 41 0.2
r56 23 24 9.6
r57 20 21 9.6
r58 18 20 0.36
r59 15 16 9.6
r60 13 18 0.0446983
r61 13 15 0.52
r62 6 21 7.5254
r63 6 8 34.65
r64 5 24 7.5254
r65 5 8 84.7
r66 1 16 7.5254
r67 1 4 123.2
.ends

.subckt PM_FULL_ADDER%GND 3 7 19 20 34 35 36 56 57 71 72 73 94 108 109 110 157
+ 174 182 217 218 219 221 222 223
c13 203 0 0.120279f
c14 201 0 0.00743876f
c15 193 0 0.0371988f
c16 191 0 0.08959f
c17 182 0 0.0458788f
c18 174 0 0.0247975f
c19 166 0 0.0173588f
c20 163 0 0.0148788f
c21 157 0 0.0223175f
c22 155 0 0.00743752f
c23 149 0 0.0198388f
c24 94 0 0.0511469f
c25 93 0 0.16244f
c26 88 0 0.0223188f
c27 81 0 0.0998157f
c28 63 0 0.0260388f
c29 57 0 0.0511469f
c30 56 0 0.16244f
c31 51 0 0.0223188f
c32 44 0 0.0998157f
c33 26 0 0.0260388f
c34 20 0 0.0511469f
c35 19 0 0.16244f
c36 14 0 0.0223188f
c37 7 0 0.0998157f
r38 201 203 0.04
r39 201 202 5.4
r40 199 222 7.36421
r41 198 201 0.0266667
r42 198 199 10.4
r43 195 198 0.0733333
r44 186 217 7.36421
r45 185 191 0.0788902
r46 185 186 10.4
r47 173 203 0.0477454
r48 173 174 0.48
r49 169 223 7.36421
r50 168 169 10.4
r51 166 174 0.0446983
r52 166 168 0.16
r53 164 221 7.36421
r54 163 164 10.4
r55 161 195 0.0477454
r56 161 163 0.2
r57 156 193 0.0338756
r58 156 157 0.4
r59 155 193 0.0338756
r60 154 191 0.057704
r61 154 155 0.12
r62 152 219 6.6
r63 152 218 6.6
r64 151 152 10.4
r65 149 157 0.0446983
r66 149 151 0.19998
r67 145 182 0.32
r68 134 145 0.38
r69 100 134 0.0608734
r70 99 100 0.0439695
r71 97 99 0.0341936
r72 97 98 2.7
r73 93 100 0.0521138
r74 93 94 0.592
r75 91 110 6.6
r76 91 109 6.6
r77 90 91 10.4
r78 88 94 0.0454198
r79 88 90 0.22
r80 84 108 7.36531
r81 83 84 10.4
r82 81 99 0.0108562
r83 81 83 0.12
r84 62 63 0.0439695
r85 60 62 0.0341936
r86 60 61 2.7
r87 56 63 0.0521138
r88 56 57 0.592
r89 54 73 6.6
r90 54 72 6.6
r91 53 54 10.4
r92 51 57 0.0454198
r93 51 53 0.22
r94 47 71 7.36531
r95 46 47 10.4
r96 44 62 0.0108562
r97 44 46 0.12
r98 25 26 0.0439695
r99 23 25 0.0341936
r100 23 24 2.7
r101 19 26 0.0521138
r102 19 20 0.592
r103 17 36 6.6
r104 17 35 6.6
r105 16 17 10.4
r106 14 20 0.0454198
r107 14 16 0.22
r108 10 34 7.36531
r109 9 10 10.4
r110 7 25 0.0108562
r111 7 9 0.12
r112 3 202 3.75
r113 3 195 10.8
r114 3 191 3.6
r115 3 185 10.8
r116 3 98 3.75125
r117 3 83 10.8
r118 3 61 3.75125
r119 3 46 10.8
r120 3 24 3.75125
r121 3 9 10.8
.ends

.subckt PM_FULL_ADDER%14 1 4 7 10 30 32 47 48 51 59 60 61 62
c13 60 0 0.00496f
c14 59 0 0.100438f
c15 54 0 0.0433988f
c16 51 0 0.0111588f
c17 48 0 0.081964f
c18 47 0 0.0819615f
c19 46 0 0.081964f
c20 45 0 0.0819615f
c21 44 0 0.00496f
c22 43 0 0.0869215f
c23 32 0 0.0309988f
c24 30 0 0.0452575f
c25 21 0 0.03096f
c26 8 0 0.00344f
c27 7 0 0.0791166f
c28 6 0 0.0206366f
c29 4 0 0.05576f
c30 1 0 0.153077f
r31 58 59 1.62
r32 54 59 0.0446983
r33 52 62 7.36421
r34 51 52 10.4
r35 49 60 0.0338756
r36 49 51 0.14
r37 47 48 1.322
r38 46 47 1.322
r39 45 46 1.322
r40 44 45 1.322
r41 43 58 0.0446983
r42 43 48 1.322
r43 41 60 0.00880368
r44 40 44 0.0446983
r45 39 61 6.80984
r46 38 39 10.8
r47 35 61 6.80984
r48 34 38 0.2
r49 34 35 10.8
r50 32 60 0.0338756
r51 32 38 0.26
r52 31 54 0.48
r53 30 41 0.26
r54 30 40 0.47
r55 20 31 0.2
r56 20 21 9.6
r57 8 10 92.4
r58 7 21 7.5254
r59 7 10 84.7
r60 5 8 4.30221
r61 5 6 46.2
r62 1 6 4.30221
r63 1 4 157.85
.ends

.subckt PM_FULL_ADDER%P 1 4 7 10 42 43 62 70 71 76
c8 79 0 0.00496f
c9 76 0 0.0328588f
c10 72 0 0.11222f
c11 71 0 0.112218f
c12 70 0 0.11222f
c13 69 0 0.112218f
c14 68 0 0.11222f
c15 67 0 0.112218f
c16 66 0 0.11222f
c17 65 0 0.112218f
c18 64 0 0.00496f
c19 63 0 0.112218f
c20 62 0 0.04402f
c21 61 0 0.0440175f
c22 60 0 0.0440175f
c23 55 0 0.0464988f
c24 54 0 0.0719175f
c25 41 0 0.00496f
c26 38 0 0.0173588f
c27 27 0 0.0334788f
c28 21 0 0.03096f
c29 8 0 0.00344f
c30 7 0 0.0791166f
c31 6 0 0.0206366f
c32 4 0 0.05576f
c33 1 0 0.153077f
r34 77 79 0.0338756
r35 73 79 0.0338756
r36 73 76 0.49
r37 71 72 1.81
r38 70 71 1.81
r39 69 70 1.81
r40 68 69 1.81
r41 67 68 1.81
r42 66 67 1.81
r43 65 66 1.81
r44 64 65 1.81
r45 63 79 0.00880368
r46 63 72 1.81
r47 61 62 0.71
r48 60 62 0.71
r49 59 64 0.0446983
r50 59 61 0.71
r51 55 60 0.0446983
r52 54 77 0.9
r53 52 55 0.53
r54 48 54 0.26
r55 41 48 0.00880368
r56 39 43 7.36311
r57 38 39 10.4
r58 36 41 0.0338756
r59 36 38 0.24
r60 34 42 6.8089
r61 33 34 10.8
r62 30 42 6.8089
r63 29 33 0.2
r64 29 30 10.8
r65 27 41 0.0338756
r66 27 33 0.3
r67 20 52 0.2
r68 20 21 9.6
r69 8 10 92.4
r70 7 21 7.5254
r71 7 10 84.7
r72 5 8 4.30221
r73 5 6 46.2
r74 1 6 4.30221
r75 1 4 157.85
.ends

.subckt PM_FULL_ADDER%AN 1 4 7 10 36
c5 36 0 0.031f
c6 21 0 0.03096f
c7 8 0 0.00344f
c8 7 0 0.0791166f
c9 6 0 0.0206366f
c10 4 0 0.05576f
c11 1 0 0.153077f
r12 30 36 0.32
r13 20 30 0.2
r14 20 21 9.6
r15 8 10 92.4
r16 7 21 7.5254
r17 7 10 84.7
r18 5 8 4.30221
r19 5 6 46.2
r20 1 6 4.30221
r21 1 4 157.85
.ends

.subckt PM_FULL_ADDER%BN 1 4 8 15 18 20 51
c6 51 0 0.031f
c7 24 0 0.03096f
c8 20 0 0.0111606f
c9 18 0 0.00248f
c10 16 0 0.03096f
c11 15 0 0.0260388f
c12 6 0 0.03096f
c13 5 0 0.0533166f
c14 4 0 0.05576f
c15 1 0 0.134157f
r16 41 51 0.32
r17 23 41 0.2
r18 23 24 9.6
r19 20 21 9.6
r20 18 20 0.36
r21 15 16 9.6
r22 13 18 0.0446983
r23 13 15 0.52
r24 6 21 7.5254
r25 6 8 34.65
r26 5 24 7.5254
r27 5 8 84.7
r28 1 16 7.5254
r29 1 4 123.2
.ends

.subckt PM_FULL_ADDER%18 4 7 25 29 31 47 48 50 51
c5 43 0 0.00496f
c6 42 0 0.00496f
c7 39 0 0.0483588f
c8 37 0 0.00496f
c9 34 0 0.0483588f
c10 31 0 0.0247975f
c11 29 0 0.0247975f
c12 25 0 0.0359588f
c13 10 0 0.0508388f
c14 7 0 0.0326783f
c15 5 0 0.03096f
c16 4 0 0.057f
c17 1 0 0.0584766f
r18 40 51 7.36421
r19 39 40 10.4
r20 37 39 0.74
r21 35 50 7.36421
r22 34 35 10.4
r23 32 42 0.00880368
r24 32 34 0.74
r25 31 37 0.0446983
r26 30 43 0.0338756
r27 30 31 0.48
r28 29 43 0.0338756
r29 28 42 0.0338756
r30 28 29 0.48
r31 25 26 9.6
r32 23 42 0.0338756
r33 23 25 0.63998
r34 16 19 0.26
r35 13 48 1.40625
r36 13 47 1.40625
r37 13 19 10.8
r38 13 16 10.8
r39 12 16 0.26
r40 12 13 10.8
r41 10 43 0.00880368
r42 10 19 0.26
r43 5 26 7.5254
r44 5 7 50.05
r45 1 26 7.5254
r46 1 4 65.45
.ends

.subckt PM_FULL_ADDER%19 4 7 29 31 47 48 50 51
c4 43 0 0.00496f
c5 42 0 0.00496f
c6 39 0 0.0483588f
c7 37 0 0.00496f
c8 34 0 0.0483588f
c9 31 0 0.0247975f
c10 29 0 0.0247975f
c11 25 0 0.0359588f
c12 10 0 0.0508388f
c13 7 0 0.0326783f
c14 5 0 0.03096f
c15 4 0 0.057f
c16 1 0 0.0584766f
r17 40 51 7.36421
r18 39 40 10.4
r19 37 39 0.74
r20 35 50 7.36421
r21 34 35 10.4
r22 32 42 0.00880368
r23 32 34 0.74
r24 31 37 0.0446983
r25 30 43 0.0338756
r26 30 31 0.48
r27 29 43 0.0338756
r28 28 42 0.0338756
r29 28 29 0.48
r30 25 26 9.6
r31 23 42 0.0338756
r32 23 25 0.63998
r33 16 19 0.26
r34 13 48 1.40625
r35 13 47 1.40625
r36 13 19 10.8
r37 13 16 10.8
r38 12 16 0.26
r39 12 13 10.8
r40 10 43 0.00880368
r41 10 19 0.26
r42 5 26 7.5254
r43 5 7 50.05
r44 1 26 7.5254
r45 1 4 65.45
.ends

.subckt PM_FULL_ADDER%20 1 2
r0 1 2 13.2
.ends

.subckt PM_FULL_ADDER%21 1 2
r0 1 2 2.8125
.ends

