* File: sipo_32.pex.netlist.pex
* Created: Thu Dec 22 00:22:57 2022
* Program "Calibre xRC"
* Version "v2012.2_36.25"
* Nominal Temperature: 27C
* Circuit Temperature: 27C
* 
.subckt PM_SIPO_32%X0/5 3 7 29 30
c0 28 0 0.00496f
c1 25 0 0.0111588f
c2 14 0 0.0309988f
c3 10 0 0.0626188f
c4 7 0 0.0206383f
c5 5 0 0.03096f
c6 1 0 0.0481583f
r7 38 39 0.17
r8 35 39 0.26
r9 28 35 0.00880368
r10 26 30 7.36311
r11 25 26 10.4
r12 23 28 0.0338756
r13 23 25 0.14
r14 21 29 6.8089
r15 20 21 10.8
r16 17 29 6.8089
r17 16 20 0.19998
r18 16 17 10.8
r19 14 28 0.0338756
r20 14 20 0.26
r21 10 38 0.64
r22 10 11 9.6
r23 5 11 7.5254
r24 5 7 23.1
r25 1 11 7.5254
r26 1 3 65.45
.ends

.subckt PM_SIPO_32%X0/6 3 7 38 39
c0 37 0 0.00496f
c1 34 0 0.0111588f
c2 19 0 0.0309988f
c3 10 0 0.0626188f
c4 7 0 0.0206383f
c5 5 0 0.03096f
c6 1 0 0.0481583f
r7 35 39 7.36421
r8 34 35 10.4
r9 32 37 0.0338756
r10 32 34 0.14
r11 27 37 0.00880368
r12 26 38 6.80984
r13 25 26 10.8
r14 22 38 6.80984
r15 21 25 0.2
r16 21 22 10.8
r17 19 37 0.0338756
r18 19 25 0.26
r19 18 27 0.26
r20 17 18 0.17
r21 10 17 0.64
r22 10 11 9.6
r23 5 11 7.5254
r24 5 7 23.1
r25 1 11 7.5254
r26 1 3 65.45
.ends

.subckt PM_SIPO_32%X1/5 3 7 29 30
c0 28 0 0.00496f
c1 25 0 0.0111588f
c2 14 0 0.0309988f
c3 10 0 0.0626188f
c4 7 0 0.0206383f
c5 5 0 0.03096f
c6 1 0 0.0481583f
r7 38 39 0.17
r8 35 39 0.26
r9 28 35 0.00880368
r10 26 30 7.36311
r11 25 26 10.4
r12 23 28 0.0338756
r13 23 25 0.14
r14 21 29 6.8089
r15 20 21 10.8
r16 17 29 6.8089
r17 16 20 0.19998
r18 16 17 10.8
r19 14 28 0.0338756
r20 14 20 0.26
r21 10 38 0.64
r22 10 11 9.6
r23 5 11 7.5254
r24 5 7 23.1
r25 1 11 7.5254
r26 1 3 65.45
.ends

.subckt PM_SIPO_32%X1/6 3 7 38 39
c0 37 0 0.00496f
c1 34 0 0.0111588f
c2 19 0 0.0309988f
c3 10 0 0.0626188f
c4 7 0 0.0206383f
c5 5 0 0.03096f
c6 1 0 0.0481583f
r7 35 39 7.36421
r8 34 35 10.4
r9 32 37 0.0338756
r10 32 34 0.14
r11 27 37 0.00880368
r12 26 38 6.80984
r13 25 26 10.8
r14 22 38 6.80984
r15 21 25 0.2
r16 21 22 10.8
r17 19 37 0.0338756
r18 19 25 0.26
r19 18 27 0.26
r20 17 18 0.17
r21 10 17 0.64
r22 10 11 9.6
r23 5 11 7.5254
r24 5 7 23.1
r25 1 11 7.5254
r26 1 3 65.45
.ends

.subckt PM_SIPO_32%X2/5 3 7 29 30
c0 28 0 0.00496f
c1 25 0 0.0111588f
c2 14 0 0.0309988f
c3 10 0 0.0626188f
c4 7 0 0.0206383f
c5 5 0 0.03096f
c6 1 0 0.0481583f
r7 38 39 0.17
r8 35 39 0.26
r9 28 35 0.00880368
r10 26 30 7.36311
r11 25 26 10.4
r12 23 28 0.0338756
r13 23 25 0.14
r14 21 29 6.8089
r15 20 21 10.8
r16 17 29 6.8089
r17 16 20 0.19998
r18 16 17 10.8
r19 14 28 0.0338756
r20 14 20 0.26
r21 10 38 0.64
r22 10 11 9.6
r23 5 11 7.5254
r24 5 7 23.1
r25 1 11 7.5254
r26 1 3 65.45
.ends

.subckt PM_SIPO_32%X2/6 3 7 38 39
c0 37 0 0.00496f
c1 34 0 0.0111588f
c2 19 0 0.0309988f
c3 10 0 0.0626188f
c4 7 0 0.0206383f
c5 5 0 0.03096f
c6 1 0 0.0481583f
r7 35 39 7.36421
r8 34 35 10.4
r9 32 37 0.0338756
r10 32 34 0.14
r11 27 37 0.00880368
r12 26 38 6.80984
r13 25 26 10.8
r14 22 38 6.80984
r15 21 25 0.2
r16 21 22 10.8
r17 19 37 0.0338756
r18 19 25 0.26
r19 18 27 0.26
r20 17 18 0.17
r21 10 17 0.64
r22 10 11 9.6
r23 5 11 7.5254
r24 5 7 23.1
r25 1 11 7.5254
r26 1 3 65.45
.ends

.subckt PM_SIPO_32%X3/5 3 7 29 30
c0 28 0 0.00496f
c1 25 0 0.0111588f
c2 14 0 0.0309988f
c3 10 0 0.0626188f
c4 7 0 0.0206383f
c5 5 0 0.03096f
c6 1 0 0.0481583f
r7 38 39 0.17
r8 35 39 0.26
r9 28 35 0.00880368
r10 26 30 7.36311
r11 25 26 10.4
r12 23 28 0.0338756
r13 23 25 0.14
r14 21 29 6.8089
r15 20 21 10.8
r16 17 29 6.8089
r17 16 20 0.19998
r18 16 17 10.8
r19 14 28 0.0338756
r20 14 20 0.26
r21 10 38 0.64
r22 10 11 9.6
r23 5 11 7.5254
r24 5 7 23.1
r25 1 11 7.5254
r26 1 3 65.45
.ends

.subckt PM_SIPO_32%X3/6 3 7 38 39
c0 37 0 0.00496f
c1 34 0 0.0111588f
c2 19 0 0.0309988f
c3 10 0 0.0626188f
c4 7 0 0.0206383f
c5 5 0 0.03096f
c6 1 0 0.0481583f
r7 35 39 7.36421
r8 34 35 10.4
r9 32 37 0.0338756
r10 32 34 0.14
r11 27 37 0.00880368
r12 26 38 6.80984
r13 25 26 10.8
r14 22 38 6.80984
r15 21 25 0.2
r16 21 22 10.8
r17 19 37 0.0338756
r18 19 25 0.26
r19 18 27 0.26
r20 17 18 0.17
r21 10 17 0.64
r22 10 11 9.6
r23 5 11 7.5254
r24 5 7 23.1
r25 1 11 7.5254
r26 1 3 65.45
.ends

.subckt PM_SIPO_32%X4/5 3 7 29 30
c0 28 0 0.00496f
c1 25 0 0.0111588f
c2 14 0 0.0309988f
c3 10 0 0.0626188f
c4 7 0 0.0206383f
c5 5 0 0.03096f
c6 1 0 0.0481583f
r7 38 39 0.17
r8 35 39 0.26
r9 28 35 0.00880368
r10 26 30 7.36311
r11 25 26 10.4
r12 23 28 0.0338756
r13 23 25 0.14
r14 21 29 6.8089
r15 20 21 10.8
r16 17 29 6.8089
r17 16 20 0.19998
r18 16 17 10.8
r19 14 28 0.0338756
r20 14 20 0.26
r21 10 38 0.64
r22 10 11 9.6
r23 5 11 7.5254
r24 5 7 23.1
r25 1 11 7.5254
r26 1 3 65.45
.ends

.subckt PM_SIPO_32%X4/6 3 7 38 39
c0 37 0 0.00496f
c1 34 0 0.0111588f
c2 19 0 0.0309988f
c3 10 0 0.0626188f
c4 7 0 0.0206383f
c5 5 0 0.03096f
c6 1 0 0.0481583f
r7 35 39 7.36421
r8 34 35 10.4
r9 32 37 0.0338756
r10 32 34 0.14
r11 27 37 0.00880368
r12 26 38 6.80984
r13 25 26 10.8
r14 22 38 6.80984
r15 21 25 0.2
r16 21 22 10.8
r17 19 37 0.0338756
r18 19 25 0.26
r19 18 27 0.26
r20 17 18 0.17
r21 10 17 0.64
r22 10 11 9.6
r23 5 11 7.5254
r24 5 7 23.1
r25 1 11 7.5254
r26 1 3 65.45
.ends

.subckt PM_SIPO_32%X5/5 3 7 29 30
c0 28 0 0.00496f
c1 25 0 0.0111588f
c2 14 0 0.0309988f
c3 10 0 0.0626188f
c4 7 0 0.0206383f
c5 5 0 0.03096f
c6 1 0 0.0481583f
r7 38 39 0.17
r8 35 39 0.26
r9 28 35 0.00880368
r10 26 30 7.36311
r11 25 26 10.4
r12 23 28 0.0338756
r13 23 25 0.14
r14 21 29 6.8089
r15 20 21 10.8
r16 17 29 6.8089
r17 16 20 0.19998
r18 16 17 10.8
r19 14 28 0.0338756
r20 14 20 0.26
r21 10 38 0.64
r22 10 11 9.6
r23 5 11 7.5254
r24 5 7 23.1
r25 1 11 7.5254
r26 1 3 65.45
.ends

.subckt PM_SIPO_32%X5/6 3 7 38 39
c0 37 0 0.00496f
c1 34 0 0.0111588f
c2 19 0 0.0309988f
c3 10 0 0.0626188f
c4 7 0 0.0206383f
c5 5 0 0.03096f
c6 1 0 0.0481583f
r7 35 39 7.36421
r8 34 35 10.4
r9 32 37 0.0338756
r10 32 34 0.14
r11 27 37 0.00880368
r12 26 38 6.80984
r13 25 26 10.8
r14 22 38 6.80984
r15 21 25 0.2
r16 21 22 10.8
r17 19 37 0.0338756
r18 19 25 0.26
r19 18 27 0.26
r20 17 18 0.17
r21 10 17 0.64
r22 10 11 9.6
r23 5 11 7.5254
r24 5 7 23.1
r25 1 11 7.5254
r26 1 3 65.45
.ends

.subckt PM_SIPO_32%X6/5 3 7 29 30
c0 28 0 0.00496f
c1 25 0 0.0111588f
c2 14 0 0.0309988f
c3 10 0 0.0626188f
c4 7 0 0.0206383f
c5 5 0 0.03096f
c6 1 0 0.0481583f
r7 38 39 0.17
r8 35 39 0.26
r9 28 35 0.00880368
r10 26 30 7.36311
r11 25 26 10.4
r12 23 28 0.0338756
r13 23 25 0.14
r14 21 29 6.8089
r15 20 21 10.8
r16 17 29 6.8089
r17 16 20 0.19998
r18 16 17 10.8
r19 14 28 0.0338756
r20 14 20 0.26
r21 10 38 0.64
r22 10 11 9.6
r23 5 11 7.5254
r24 5 7 23.1
r25 1 11 7.5254
r26 1 3 65.45
.ends

.subckt PM_SIPO_32%X6/6 3 7 38 39
c0 37 0 0.00496f
c1 34 0 0.0111588f
c2 19 0 0.0309988f
c3 10 0 0.0626188f
c4 7 0 0.0206383f
c5 5 0 0.03096f
c6 1 0 0.0481583f
r7 35 39 7.36421
r8 34 35 10.4
r9 32 37 0.0338756
r10 32 34 0.14
r11 27 37 0.00880368
r12 26 38 6.80984
r13 25 26 10.8
r14 22 38 6.80984
r15 21 25 0.2
r16 21 22 10.8
r17 19 37 0.0338756
r18 19 25 0.26
r19 18 27 0.26
r20 17 18 0.17
r21 10 17 0.64
r22 10 11 9.6
r23 5 11 7.5254
r24 5 7 23.1
r25 1 11 7.5254
r26 1 3 65.45
.ends

.subckt PM_SIPO_32%X7/5 3 7 29 30
c0 28 0 0.00496f
c1 25 0 0.0111588f
c2 14 0 0.0309988f
c3 10 0 0.0626188f
c4 7 0 0.0206383f
c5 5 0 0.03096f
c6 1 0 0.0481583f
r7 38 39 0.17
r8 35 39 0.26
r9 28 35 0.00880368
r10 26 30 7.36311
r11 25 26 10.4
r12 23 28 0.0338756
r13 23 25 0.14
r14 21 29 6.8089
r15 20 21 10.8
r16 17 29 6.8089
r17 16 20 0.19998
r18 16 17 10.8
r19 14 28 0.0338756
r20 14 20 0.26
r21 10 38 0.64
r22 10 11 9.6
r23 5 11 7.5254
r24 5 7 23.1
r25 1 11 7.5254
r26 1 3 65.45
.ends

.subckt PM_SIPO_32%X7/6 3 7 38 39
c0 37 0 0.00496f
c1 34 0 0.0111588f
c2 19 0 0.0309988f
c3 10 0 0.0626188f
c4 7 0 0.0206383f
c5 5 0 0.03096f
c6 1 0 0.0481583f
r7 35 39 7.36421
r8 34 35 10.4
r9 32 37 0.0338756
r10 32 34 0.14
r11 27 37 0.00880368
r12 26 38 6.80984
r13 25 26 10.8
r14 22 38 6.80984
r15 21 25 0.2
r16 21 22 10.8
r17 19 37 0.0338756
r18 19 25 0.26
r19 18 27 0.26
r20 17 18 0.17
r21 10 17 0.64
r22 10 11 9.6
r23 5 11 7.5254
r24 5 7 23.1
r25 1 11 7.5254
r26 1 3 65.45
.ends

.subckt PM_SIPO_32%X8/5 3 7 29 30
c0 28 0 0.00496f
c1 25 0 0.0111588f
c2 14 0 0.0309988f
c3 10 0 0.0626188f
c4 7 0 0.0206383f
c5 5 0 0.03096f
c6 1 0 0.0481583f
r7 38 39 0.17
r8 35 39 0.26
r9 28 35 0.00880368
r10 26 30 7.36311
r11 25 26 10.4
r12 23 28 0.0338756
r13 23 25 0.14
r14 21 29 6.8089
r15 20 21 10.8
r16 17 29 6.8089
r17 16 20 0.19998
r18 16 17 10.8
r19 14 28 0.0338756
r20 14 20 0.26
r21 10 38 0.64
r22 10 11 9.6
r23 5 11 7.5254
r24 5 7 23.1
r25 1 11 7.5254
r26 1 3 65.45
.ends

.subckt PM_SIPO_32%X8/6 3 7 38 39
c0 37 0 0.00496f
c1 34 0 0.0111588f
c2 19 0 0.0309988f
c3 10 0 0.0626188f
c4 7 0 0.0206383f
c5 5 0 0.03096f
c6 1 0 0.0481583f
r7 35 39 7.36421
r8 34 35 10.4
r9 32 37 0.0338756
r10 32 34 0.14
r11 27 37 0.00880368
r12 26 38 6.80984
r13 25 26 10.8
r14 22 38 6.80984
r15 21 25 0.2
r16 21 22 10.8
r17 19 37 0.0338756
r18 19 25 0.26
r19 18 27 0.26
r20 17 18 0.17
r21 10 17 0.64
r22 10 11 9.6
r23 5 11 7.5254
r24 5 7 23.1
r25 1 11 7.5254
r26 1 3 65.45
.ends

.subckt PM_SIPO_32%X9/5 3 7 29 30
c0 28 0 0.00496f
c1 25 0 0.0111588f
c2 14 0 0.0309988f
c3 10 0 0.0626188f
c4 7 0 0.0206383f
c5 5 0 0.03096f
c6 1 0 0.0481583f
r7 38 39 0.17
r8 35 39 0.26
r9 28 35 0.00880368
r10 26 30 7.36311
r11 25 26 10.4
r12 23 28 0.0338756
r13 23 25 0.14
r14 21 29 6.8089
r15 20 21 10.8
r16 17 29 6.8089
r17 16 20 0.19998
r18 16 17 10.8
r19 14 28 0.0338756
r20 14 20 0.26
r21 10 38 0.64
r22 10 11 9.6
r23 5 11 7.5254
r24 5 7 23.1
r25 1 11 7.5254
r26 1 3 65.45
.ends

.subckt PM_SIPO_32%X9/6 3 7 38 39
c0 37 0 0.00496f
c1 34 0 0.0111588f
c2 19 0 0.0309988f
c3 10 0 0.0626188f
c4 7 0 0.0206383f
c5 5 0 0.03096f
c6 1 0 0.0481583f
r7 35 39 7.36421
r8 34 35 10.4
r9 32 37 0.0338756
r10 32 34 0.14
r11 27 37 0.00880368
r12 26 38 6.80984
r13 25 26 10.8
r14 22 38 6.80984
r15 21 25 0.2
r16 21 22 10.8
r17 19 37 0.0338756
r18 19 25 0.26
r19 18 27 0.26
r20 17 18 0.17
r21 10 17 0.64
r22 10 11 9.6
r23 5 11 7.5254
r24 5 7 23.1
r25 1 11 7.5254
r26 1 3 65.45
.ends

.subckt PM_SIPO_32%X10/5 3 7 29 30
c0 28 0 0.00496f
c1 25 0 0.0111588f
c2 14 0 0.0309988f
c3 10 0 0.0626188f
c4 7 0 0.0206383f
c5 5 0 0.03096f
c6 1 0 0.0481583f
r7 38 39 0.17
r8 35 39 0.26
r9 28 35 0.00880368
r10 26 30 7.36311
r11 25 26 10.4
r12 23 28 0.0338756
r13 23 25 0.14
r14 21 29 6.8089
r15 20 21 10.8
r16 17 29 6.8089
r17 16 20 0.19998
r18 16 17 10.8
r19 14 28 0.0338756
r20 14 20 0.26
r21 10 38 0.64
r22 10 11 9.6
r23 5 11 7.5254
r24 5 7 23.1
r25 1 11 7.5254
r26 1 3 65.45
.ends

.subckt PM_SIPO_32%X10/6 3 7 38 39
c0 37 0 0.00496f
c1 34 0 0.0111588f
c2 19 0 0.0309988f
c3 10 0 0.0626188f
c4 7 0 0.0206383f
c5 5 0 0.03096f
c6 1 0 0.0481583f
r7 35 39 7.36421
r8 34 35 10.4
r9 32 37 0.0338756
r10 32 34 0.14
r11 27 37 0.00880368
r12 26 38 6.80984
r13 25 26 10.8
r14 22 38 6.80984
r15 21 25 0.2
r16 21 22 10.8
r17 19 37 0.0338756
r18 19 25 0.26
r19 18 27 0.26
r20 17 18 0.17
r21 10 17 0.64
r22 10 11 9.6
r23 5 11 7.5254
r24 5 7 23.1
r25 1 11 7.5254
r26 1 3 65.45
.ends

.subckt PM_SIPO_32%X11/5 3 7 29 30
c0 28 0 0.00496f
c1 25 0 0.0111588f
c2 14 0 0.0309988f
c3 10 0 0.0626188f
c4 7 0 0.0206383f
c5 5 0 0.03096f
c6 1 0 0.0481583f
r7 38 39 0.17
r8 35 39 0.26
r9 28 35 0.00880368
r10 26 30 7.36311
r11 25 26 10.4
r12 23 28 0.0338756
r13 23 25 0.14
r14 21 29 6.8089
r15 20 21 10.8
r16 17 29 6.8089
r17 16 20 0.19998
r18 16 17 10.8
r19 14 28 0.0338756
r20 14 20 0.26
r21 10 38 0.64
r22 10 11 9.6
r23 5 11 7.5254
r24 5 7 23.1
r25 1 11 7.5254
r26 1 3 65.45
.ends

.subckt PM_SIPO_32%X11/6 3 7 38 39
c0 37 0 0.00496f
c1 34 0 0.0111588f
c2 19 0 0.0309988f
c3 10 0 0.0626188f
c4 7 0 0.0206383f
c5 5 0 0.03096f
c6 1 0 0.0481583f
r7 35 39 7.36421
r8 34 35 10.4
r9 32 37 0.0338756
r10 32 34 0.14
r11 27 37 0.00880368
r12 26 38 6.80984
r13 25 26 10.8
r14 22 38 6.80984
r15 21 25 0.2
r16 21 22 10.8
r17 19 37 0.0338756
r18 19 25 0.26
r19 18 27 0.26
r20 17 18 0.17
r21 10 17 0.64
r22 10 11 9.6
r23 5 11 7.5254
r24 5 7 23.1
r25 1 11 7.5254
r26 1 3 65.45
.ends

.subckt PM_SIPO_32%X12/5 3 7 29 30
c0 28 0 0.00496f
c1 25 0 0.0111588f
c2 14 0 0.0309988f
c3 10 0 0.0626188f
c4 7 0 0.0206383f
c5 5 0 0.03096f
c6 1 0 0.0481583f
r7 38 39 0.17
r8 35 39 0.26
r9 28 35 0.00880368
r10 26 30 7.36311
r11 25 26 10.4
r12 23 28 0.0338756
r13 23 25 0.14
r14 21 29 6.8089
r15 20 21 10.8
r16 17 29 6.8089
r17 16 20 0.19998
r18 16 17 10.8
r19 14 28 0.0338756
r20 14 20 0.26
r21 10 38 0.64
r22 10 11 9.6
r23 5 11 7.5254
r24 5 7 23.1
r25 1 11 7.5254
r26 1 3 65.45
.ends

.subckt PM_SIPO_32%X12/6 3 7 38 39
c0 37 0 0.00496f
c1 34 0 0.0111588f
c2 19 0 0.0309988f
c3 10 0 0.0626188f
c4 7 0 0.0206383f
c5 5 0 0.03096f
c6 1 0 0.0481583f
r7 35 39 7.36421
r8 34 35 10.4
r9 32 37 0.0338756
r10 32 34 0.14
r11 27 37 0.00880368
r12 26 38 6.80984
r13 25 26 10.8
r14 22 38 6.80984
r15 21 25 0.2
r16 21 22 10.8
r17 19 37 0.0338756
r18 19 25 0.26
r19 18 27 0.26
r20 17 18 0.17
r21 10 17 0.64
r22 10 11 9.6
r23 5 11 7.5254
r24 5 7 23.1
r25 1 11 7.5254
r26 1 3 65.45
.ends

.subckt PM_SIPO_32%X13/5 3 7 29 30
c0 28 0 0.00496f
c1 25 0 0.0111588f
c2 14 0 0.0309988f
c3 10 0 0.0626188f
c4 7 0 0.0206383f
c5 5 0 0.03096f
c6 1 0 0.0481583f
r7 38 39 0.17
r8 35 39 0.26
r9 28 35 0.00880368
r10 26 30 7.36311
r11 25 26 10.4
r12 23 28 0.0338756
r13 23 25 0.14
r14 21 29 6.8089
r15 20 21 10.8
r16 17 29 6.8089
r17 16 20 0.19998
r18 16 17 10.8
r19 14 28 0.0338756
r20 14 20 0.26
r21 10 38 0.64
r22 10 11 9.6
r23 5 11 7.5254
r24 5 7 23.1
r25 1 11 7.5254
r26 1 3 65.45
.ends

.subckt PM_SIPO_32%X13/6 3 7 38 39
c0 37 0 0.00496f
c1 34 0 0.0111588f
c2 19 0 0.0309988f
c3 10 0 0.0626188f
c4 7 0 0.0206383f
c5 5 0 0.03096f
c6 1 0 0.0481583f
r7 35 39 7.36421
r8 34 35 10.4
r9 32 37 0.0338756
r10 32 34 0.14
r11 27 37 0.00880368
r12 26 38 6.80984
r13 25 26 10.8
r14 22 38 6.80984
r15 21 25 0.2
r16 21 22 10.8
r17 19 37 0.0338756
r18 19 25 0.26
r19 18 27 0.26
r20 17 18 0.17
r21 10 17 0.64
r22 10 11 9.6
r23 5 11 7.5254
r24 5 7 23.1
r25 1 11 7.5254
r26 1 3 65.45
.ends

.subckt PM_SIPO_32%X14/5 3 7 29 30
c0 28 0 0.00496f
c1 25 0 0.0111588f
c2 14 0 0.0309988f
c3 10 0 0.0626188f
c4 7 0 0.0206383f
c5 5 0 0.03096f
c6 1 0 0.0481583f
r7 38 39 0.17
r8 35 39 0.26
r9 28 35 0.00880368
r10 26 30 7.36311
r11 25 26 10.4
r12 23 28 0.0338756
r13 23 25 0.14
r14 21 29 6.8089
r15 20 21 10.8
r16 17 29 6.8089
r17 16 20 0.19998
r18 16 17 10.8
r19 14 28 0.0338756
r20 14 20 0.26
r21 10 38 0.64
r22 10 11 9.6
r23 5 11 7.5254
r24 5 7 23.1
r25 1 11 7.5254
r26 1 3 65.45
.ends

.subckt PM_SIPO_32%X14/6 3 7 38 39
c0 37 0 0.00496f
c1 34 0 0.0111588f
c2 19 0 0.0309988f
c3 10 0 0.0626188f
c4 7 0 0.0206383f
c5 5 0 0.03096f
c6 1 0 0.0481583f
r7 35 39 7.36421
r8 34 35 10.4
r9 32 37 0.0338756
r10 32 34 0.14
r11 27 37 0.00880368
r12 26 38 6.80984
r13 25 26 10.8
r14 22 38 6.80984
r15 21 25 0.2
r16 21 22 10.8
r17 19 37 0.0338756
r18 19 25 0.26
r19 18 27 0.26
r20 17 18 0.17
r21 10 17 0.64
r22 10 11 9.6
r23 5 11 7.5254
r24 5 7 23.1
r25 1 11 7.5254
r26 1 3 65.45
.ends

.subckt PM_SIPO_32%X15/5 3 7 29 30
c0 28 0 0.00496f
c1 25 0 0.0111588f
c2 14 0 0.0309988f
c3 10 0 0.0626188f
c4 7 0 0.0206383f
c5 5 0 0.03096f
c6 1 0 0.0481583f
r7 38 39 0.17
r8 35 39 0.26
r9 28 35 0.00880368
r10 26 30 7.36311
r11 25 26 10.4
r12 23 28 0.0338756
r13 23 25 0.14
r14 21 29 6.8089
r15 20 21 10.8
r16 17 29 6.8089
r17 16 20 0.19998
r18 16 17 10.8
r19 14 28 0.0338756
r20 14 20 0.26
r21 10 38 0.64
r22 10 11 9.6
r23 5 11 7.5254
r24 5 7 23.1
r25 1 11 7.5254
r26 1 3 65.45
.ends

.subckt PM_SIPO_32%X15/6 3 7 38 39
c0 37 0 0.00496f
c1 34 0 0.0111588f
c2 19 0 0.0309988f
c3 10 0 0.0626188f
c4 7 0 0.0206383f
c5 5 0 0.03096f
c6 1 0 0.0481583f
r7 35 39 7.36421
r8 34 35 10.4
r9 32 37 0.0338756
r10 32 34 0.14
r11 27 37 0.00880368
r12 26 38 6.80984
r13 25 26 10.8
r14 22 38 6.80984
r15 21 25 0.2
r16 21 22 10.8
r17 19 37 0.0338756
r18 19 25 0.26
r19 18 27 0.26
r20 17 18 0.17
r21 10 17 0.64
r22 10 11 9.6
r23 5 11 7.5254
r24 5 7 23.1
r25 1 11 7.5254
r26 1 3 65.45
.ends

.subckt PM_SIPO_32%X16/5 3 7 29 30
c0 28 0 0.00496f
c1 25 0 0.0111588f
c2 14 0 0.0309988f
c3 10 0 0.0626188f
c4 7 0 0.0206383f
c5 5 0 0.03096f
c6 1 0 0.0481583f
r7 38 39 0.17
r8 35 39 0.26
r9 28 35 0.00880368
r10 26 30 7.36311
r11 25 26 10.4
r12 23 28 0.0338756
r13 23 25 0.14
r14 21 29 6.8089
r15 20 21 10.8
r16 17 29 6.8089
r17 16 20 0.19998
r18 16 17 10.8
r19 14 28 0.0338756
r20 14 20 0.26
r21 10 38 0.64
r22 10 11 9.6
r23 5 11 7.5254
r24 5 7 23.1
r25 1 11 7.5254
r26 1 3 65.45
.ends

.subckt PM_SIPO_32%X16/6 3 7 38 39
c0 37 0 0.00496f
c1 34 0 0.0111588f
c2 19 0 0.0309988f
c3 10 0 0.0626188f
c4 7 0 0.0206383f
c5 5 0 0.03096f
c6 1 0 0.0481583f
r7 35 39 7.36421
r8 34 35 10.4
r9 32 37 0.0338756
r10 32 34 0.14
r11 27 37 0.00880368
r12 26 38 6.80984
r13 25 26 10.8
r14 22 38 6.80984
r15 21 25 0.2
r16 21 22 10.8
r17 19 37 0.0338756
r18 19 25 0.26
r19 18 27 0.26
r20 17 18 0.17
r21 10 17 0.64
r22 10 11 9.6
r23 5 11 7.5254
r24 5 7 23.1
r25 1 11 7.5254
r26 1 3 65.45
.ends

.subckt PM_SIPO_32%X17/5 3 7 29 30
c0 28 0 0.00496f
c1 25 0 0.0111588f
c2 14 0 0.0309988f
c3 10 0 0.0626188f
c4 7 0 0.0206383f
c5 5 0 0.03096f
c6 1 0 0.0481583f
r7 38 39 0.17
r8 35 39 0.26
r9 28 35 0.00880368
r10 26 30 7.36311
r11 25 26 10.4
r12 23 28 0.0338756
r13 23 25 0.14
r14 21 29 6.8089
r15 20 21 10.8
r16 17 29 6.8089
r17 16 20 0.19998
r18 16 17 10.8
r19 14 28 0.0338756
r20 14 20 0.26
r21 10 38 0.64
r22 10 11 9.6
r23 5 11 7.5254
r24 5 7 23.1
r25 1 11 7.5254
r26 1 3 65.45
.ends

.subckt PM_SIPO_32%X17/6 3 7 38 39
c0 37 0 0.00496f
c1 34 0 0.0111588f
c2 19 0 0.0309988f
c3 10 0 0.0626188f
c4 7 0 0.0206383f
c5 5 0 0.03096f
c6 1 0 0.0481583f
r7 35 39 7.36421
r8 34 35 10.4
r9 32 37 0.0338756
r10 32 34 0.14
r11 27 37 0.00880368
r12 26 38 6.80984
r13 25 26 10.8
r14 22 38 6.80984
r15 21 25 0.2
r16 21 22 10.8
r17 19 37 0.0338756
r18 19 25 0.26
r19 18 27 0.26
r20 17 18 0.17
r21 10 17 0.64
r22 10 11 9.6
r23 5 11 7.5254
r24 5 7 23.1
r25 1 11 7.5254
r26 1 3 65.45
.ends

.subckt PM_SIPO_32%X18/5 3 7 29 30
c0 28 0 0.00496f
c1 25 0 0.0111588f
c2 14 0 0.0309988f
c3 10 0 0.0626188f
c4 7 0 0.0206383f
c5 5 0 0.03096f
c6 1 0 0.0481583f
r7 38 39 0.17
r8 35 39 0.26
r9 28 35 0.00880368
r10 26 30 7.36311
r11 25 26 10.4
r12 23 28 0.0338756
r13 23 25 0.14
r14 21 29 6.8089
r15 20 21 10.8
r16 17 29 6.8089
r17 16 20 0.19998
r18 16 17 10.8
r19 14 28 0.0338756
r20 14 20 0.26
r21 10 38 0.64
r22 10 11 9.6
r23 5 11 7.5254
r24 5 7 23.1
r25 1 11 7.5254
r26 1 3 65.45
.ends

.subckt PM_SIPO_32%X18/6 3 7 38 39
c0 37 0 0.00496f
c1 34 0 0.0111588f
c2 19 0 0.0309988f
c3 10 0 0.0626188f
c4 7 0 0.0206383f
c5 5 0 0.03096f
c6 1 0 0.0481583f
r7 35 39 7.36421
r8 34 35 10.4
r9 32 37 0.0338756
r10 32 34 0.14
r11 27 37 0.00880368
r12 26 38 6.80984
r13 25 26 10.8
r14 22 38 6.80984
r15 21 25 0.2
r16 21 22 10.8
r17 19 37 0.0338756
r18 19 25 0.26
r19 18 27 0.26
r20 17 18 0.17
r21 10 17 0.64
r22 10 11 9.6
r23 5 11 7.5254
r24 5 7 23.1
r25 1 11 7.5254
r26 1 3 65.45
.ends

.subckt PM_SIPO_32%X19/5 3 7 29 30
c0 28 0 0.00496f
c1 25 0 0.0111588f
c2 14 0 0.0309988f
c3 10 0 0.0626188f
c4 7 0 0.0206383f
c5 5 0 0.03096f
c6 1 0 0.0481583f
r7 38 39 0.17
r8 35 39 0.26
r9 28 35 0.00880368
r10 26 30 7.36311
r11 25 26 10.4
r12 23 28 0.0338756
r13 23 25 0.14
r14 21 29 6.8089
r15 20 21 10.8
r16 17 29 6.8089
r17 16 20 0.19998
r18 16 17 10.8
r19 14 28 0.0338756
r20 14 20 0.26
r21 10 38 0.64
r22 10 11 9.6
r23 5 11 7.5254
r24 5 7 23.1
r25 1 11 7.5254
r26 1 3 65.45
.ends

.subckt PM_SIPO_32%X19/6 3 7 38 39
c0 37 0 0.00496f
c1 34 0 0.0111588f
c2 19 0 0.0309988f
c3 10 0 0.0626188f
c4 7 0 0.0206383f
c5 5 0 0.03096f
c6 1 0 0.0481583f
r7 35 39 7.36421
r8 34 35 10.4
r9 32 37 0.0338756
r10 32 34 0.14
r11 27 37 0.00880368
r12 26 38 6.80984
r13 25 26 10.8
r14 22 38 6.80984
r15 21 25 0.2
r16 21 22 10.8
r17 19 37 0.0338756
r18 19 25 0.26
r19 18 27 0.26
r20 17 18 0.17
r21 10 17 0.64
r22 10 11 9.6
r23 5 11 7.5254
r24 5 7 23.1
r25 1 11 7.5254
r26 1 3 65.45
.ends

.subckt PM_SIPO_32%X20/5 3 7 29 30
c0 28 0 0.00496f
c1 25 0 0.0111588f
c2 14 0 0.0309988f
c3 10 0 0.0626188f
c4 7 0 0.0206383f
c5 5 0 0.03096f
c6 1 0 0.0481583f
r7 38 39 0.17
r8 35 39 0.26
r9 28 35 0.00880368
r10 26 30 7.36311
r11 25 26 10.4
r12 23 28 0.0338756
r13 23 25 0.14
r14 21 29 6.8089
r15 20 21 10.8
r16 17 29 6.8089
r17 16 20 0.19998
r18 16 17 10.8
r19 14 28 0.0338756
r20 14 20 0.26
r21 10 38 0.64
r22 10 11 9.6
r23 5 11 7.5254
r24 5 7 23.1
r25 1 11 7.5254
r26 1 3 65.45
.ends

.subckt PM_SIPO_32%X20/6 3 7 38 39
c0 37 0 0.00496f
c1 34 0 0.0111588f
c2 19 0 0.0309988f
c3 10 0 0.0626188f
c4 7 0 0.0206383f
c5 5 0 0.03096f
c6 1 0 0.0481583f
r7 35 39 7.36421
r8 34 35 10.4
r9 32 37 0.0338756
r10 32 34 0.14
r11 27 37 0.00880368
r12 26 38 6.80984
r13 25 26 10.8
r14 22 38 6.80984
r15 21 25 0.2
r16 21 22 10.8
r17 19 37 0.0338756
r18 19 25 0.26
r19 18 27 0.26
r20 17 18 0.17
r21 10 17 0.64
r22 10 11 9.6
r23 5 11 7.5254
r24 5 7 23.1
r25 1 11 7.5254
r26 1 3 65.45
.ends

.subckt PM_SIPO_32%X21/5 3 7 29 30
c0 28 0 0.00496f
c1 25 0 0.0111588f
c2 14 0 0.0309988f
c3 10 0 0.0626188f
c4 7 0 0.0206383f
c5 5 0 0.03096f
c6 1 0 0.0481583f
r7 38 39 0.17
r8 35 39 0.26
r9 28 35 0.00880368
r10 26 30 7.36311
r11 25 26 10.4
r12 23 28 0.0338756
r13 23 25 0.14
r14 21 29 6.8089
r15 20 21 10.8
r16 17 29 6.8089
r17 16 20 0.19998
r18 16 17 10.8
r19 14 28 0.0338756
r20 14 20 0.26
r21 10 38 0.64
r22 10 11 9.6
r23 5 11 7.5254
r24 5 7 23.1
r25 1 11 7.5254
r26 1 3 65.45
.ends

.subckt PM_SIPO_32%X21/6 3 7 38 39
c0 37 0 0.00496f
c1 34 0 0.0111588f
c2 19 0 0.0309988f
c3 10 0 0.0626188f
c4 7 0 0.0206383f
c5 5 0 0.03096f
c6 1 0 0.0481583f
r7 35 39 7.36421
r8 34 35 10.4
r9 32 37 0.0338756
r10 32 34 0.14
r11 27 37 0.00880368
r12 26 38 6.80984
r13 25 26 10.8
r14 22 38 6.80984
r15 21 25 0.2
r16 21 22 10.8
r17 19 37 0.0338756
r18 19 25 0.26
r19 18 27 0.26
r20 17 18 0.17
r21 10 17 0.64
r22 10 11 9.6
r23 5 11 7.5254
r24 5 7 23.1
r25 1 11 7.5254
r26 1 3 65.45
.ends

.subckt PM_SIPO_32%X22/5 3 7 29 30
c0 28 0 0.00496f
c1 25 0 0.0111588f
c2 14 0 0.0309988f
c3 10 0 0.0626188f
c4 7 0 0.0206383f
c5 5 0 0.03096f
c6 1 0 0.0481583f
r7 38 39 0.17
r8 35 39 0.26
r9 28 35 0.00880368
r10 26 30 7.36311
r11 25 26 10.4
r12 23 28 0.0338756
r13 23 25 0.14
r14 21 29 6.8089
r15 20 21 10.8
r16 17 29 6.8089
r17 16 20 0.19998
r18 16 17 10.8
r19 14 28 0.0338756
r20 14 20 0.26
r21 10 38 0.64
r22 10 11 9.6
r23 5 11 7.5254
r24 5 7 23.1
r25 1 11 7.5254
r26 1 3 65.45
.ends

.subckt PM_SIPO_32%X22/6 3 7 38 39
c0 37 0 0.00496f
c1 34 0 0.0111588f
c2 19 0 0.0309988f
c3 10 0 0.0626188f
c4 7 0 0.0206383f
c5 5 0 0.03096f
c6 1 0 0.0481583f
r7 35 39 7.36421
r8 34 35 10.4
r9 32 37 0.0338756
r10 32 34 0.14
r11 27 37 0.00880368
r12 26 38 6.80984
r13 25 26 10.8
r14 22 38 6.80984
r15 21 25 0.2
r16 21 22 10.8
r17 19 37 0.0338756
r18 19 25 0.26
r19 18 27 0.26
r20 17 18 0.17
r21 10 17 0.64
r22 10 11 9.6
r23 5 11 7.5254
r24 5 7 23.1
r25 1 11 7.5254
r26 1 3 65.45
.ends

.subckt PM_SIPO_32%X23/5 3 7 29 30
c0 28 0 0.00496f
c1 25 0 0.0111588f
c2 14 0 0.0309988f
c3 10 0 0.0626188f
c4 7 0 0.0206383f
c5 5 0 0.03096f
c6 1 0 0.0481583f
r7 38 39 0.17
r8 35 39 0.26
r9 28 35 0.00880368
r10 26 30 7.36311
r11 25 26 10.4
r12 23 28 0.0338756
r13 23 25 0.14
r14 21 29 6.8089
r15 20 21 10.8
r16 17 29 6.8089
r17 16 20 0.19998
r18 16 17 10.8
r19 14 28 0.0338756
r20 14 20 0.26
r21 10 38 0.64
r22 10 11 9.6
r23 5 11 7.5254
r24 5 7 23.1
r25 1 11 7.5254
r26 1 3 65.45
.ends

.subckt PM_SIPO_32%X23/6 3 7 38 39
c0 37 0 0.00496f
c1 34 0 0.0111588f
c2 19 0 0.0309988f
c3 10 0 0.0626188f
c4 7 0 0.0206383f
c5 5 0 0.03096f
c6 1 0 0.0481583f
r7 35 39 7.36421
r8 34 35 10.4
r9 32 37 0.0338756
r10 32 34 0.14
r11 27 37 0.00880368
r12 26 38 6.80984
r13 25 26 10.8
r14 22 38 6.80984
r15 21 25 0.2
r16 21 22 10.8
r17 19 37 0.0338756
r18 19 25 0.26
r19 18 27 0.26
r20 17 18 0.17
r21 10 17 0.64
r22 10 11 9.6
r23 5 11 7.5254
r24 5 7 23.1
r25 1 11 7.5254
r26 1 3 65.45
.ends

.subckt PM_SIPO_32%X24/5 3 7 29 30
c0 28 0 0.00496f
c1 25 0 0.0111588f
c2 14 0 0.0309988f
c3 10 0 0.0626188f
c4 7 0 0.0206383f
c5 5 0 0.03096f
c6 1 0 0.0481583f
r7 38 39 0.17
r8 35 39 0.26
r9 28 35 0.00880368
r10 26 30 7.36311
r11 25 26 10.4
r12 23 28 0.0338756
r13 23 25 0.14
r14 21 29 6.8089
r15 20 21 10.8
r16 17 29 6.8089
r17 16 20 0.19998
r18 16 17 10.8
r19 14 28 0.0338756
r20 14 20 0.26
r21 10 38 0.64
r22 10 11 9.6
r23 5 11 7.5254
r24 5 7 23.1
r25 1 11 7.5254
r26 1 3 65.45
.ends

.subckt PM_SIPO_32%X24/6 3 7 38 39
c0 37 0 0.00496f
c1 34 0 0.0111588f
c2 19 0 0.0309988f
c3 10 0 0.0626188f
c4 7 0 0.0206383f
c5 5 0 0.03096f
c6 1 0 0.0481583f
r7 35 39 7.36421
r8 34 35 10.4
r9 32 37 0.0338756
r10 32 34 0.14
r11 27 37 0.00880368
r12 26 38 6.80984
r13 25 26 10.8
r14 22 38 6.80984
r15 21 25 0.2
r16 21 22 10.8
r17 19 37 0.0338756
r18 19 25 0.26
r19 18 27 0.26
r20 17 18 0.17
r21 10 17 0.64
r22 10 11 9.6
r23 5 11 7.5254
r24 5 7 23.1
r25 1 11 7.5254
r26 1 3 65.45
.ends

.subckt PM_SIPO_32%X25/5 3 7 29 30
c0 28 0 0.00496f
c1 25 0 0.0111588f
c2 14 0 0.0309988f
c3 10 0 0.0626188f
c4 7 0 0.0206383f
c5 5 0 0.03096f
c6 1 0 0.0481583f
r7 38 39 0.17
r8 35 39 0.26
r9 28 35 0.00880368
r10 26 30 7.36311
r11 25 26 10.4
r12 23 28 0.0338756
r13 23 25 0.14
r14 21 29 6.8089
r15 20 21 10.8
r16 17 29 6.8089
r17 16 20 0.19998
r18 16 17 10.8
r19 14 28 0.0338756
r20 14 20 0.26
r21 10 38 0.64
r22 10 11 9.6
r23 5 11 7.5254
r24 5 7 23.1
r25 1 11 7.5254
r26 1 3 65.45
.ends

.subckt PM_SIPO_32%X25/6 3 7 38 39
c0 37 0 0.00496f
c1 34 0 0.0111588f
c2 19 0 0.0309988f
c3 10 0 0.0626188f
c4 7 0 0.0206383f
c5 5 0 0.03096f
c6 1 0 0.0481583f
r7 35 39 7.36421
r8 34 35 10.4
r9 32 37 0.0338756
r10 32 34 0.14
r11 27 37 0.00880368
r12 26 38 6.80984
r13 25 26 10.8
r14 22 38 6.80984
r15 21 25 0.2
r16 21 22 10.8
r17 19 37 0.0338756
r18 19 25 0.26
r19 18 27 0.26
r20 17 18 0.17
r21 10 17 0.64
r22 10 11 9.6
r23 5 11 7.5254
r24 5 7 23.1
r25 1 11 7.5254
r26 1 3 65.45
.ends

.subckt PM_SIPO_32%X26/5 3 7 29 30
c0 28 0 0.00496f
c1 25 0 0.0111588f
c2 14 0 0.0309988f
c3 10 0 0.0626188f
c4 7 0 0.0206383f
c5 5 0 0.03096f
c6 1 0 0.0481583f
r7 38 39 0.17
r8 35 39 0.26
r9 28 35 0.00880368
r10 26 30 7.36311
r11 25 26 10.4
r12 23 28 0.0338756
r13 23 25 0.14
r14 21 29 6.8089
r15 20 21 10.8
r16 17 29 6.8089
r17 16 20 0.19998
r18 16 17 10.8
r19 14 28 0.0338756
r20 14 20 0.26
r21 10 38 0.64
r22 10 11 9.6
r23 5 11 7.5254
r24 5 7 23.1
r25 1 11 7.5254
r26 1 3 65.45
.ends

.subckt PM_SIPO_32%X26/6 3 7 38 39
c0 37 0 0.00496f
c1 34 0 0.0111588f
c2 19 0 0.0309988f
c3 10 0 0.0626188f
c4 7 0 0.0206383f
c5 5 0 0.03096f
c6 1 0 0.0481583f
r7 35 39 7.36421
r8 34 35 10.4
r9 32 37 0.0338756
r10 32 34 0.14
r11 27 37 0.00880368
r12 26 38 6.80984
r13 25 26 10.8
r14 22 38 6.80984
r15 21 25 0.2
r16 21 22 10.8
r17 19 37 0.0338756
r18 19 25 0.26
r19 18 27 0.26
r20 17 18 0.17
r21 10 17 0.64
r22 10 11 9.6
r23 5 11 7.5254
r24 5 7 23.1
r25 1 11 7.5254
r26 1 3 65.45
.ends

.subckt PM_SIPO_32%X27/5 3 7 29 30
c0 28 0 0.00496f
c1 25 0 0.0111588f
c2 14 0 0.0309988f
c3 10 0 0.0626188f
c4 7 0 0.0206383f
c5 5 0 0.03096f
c6 1 0 0.0481583f
r7 38 39 0.17
r8 35 39 0.26
r9 28 35 0.00880368
r10 26 30 7.36311
r11 25 26 10.4
r12 23 28 0.0338756
r13 23 25 0.14
r14 21 29 6.8089
r15 20 21 10.8
r16 17 29 6.8089
r17 16 20 0.19998
r18 16 17 10.8
r19 14 28 0.0338756
r20 14 20 0.26
r21 10 38 0.64
r22 10 11 9.6
r23 5 11 7.5254
r24 5 7 23.1
r25 1 11 7.5254
r26 1 3 65.45
.ends

.subckt PM_SIPO_32%X27/6 3 7 38 39
c0 37 0 0.00496f
c1 34 0 0.0111588f
c2 19 0 0.0309988f
c3 10 0 0.0626188f
c4 7 0 0.0206383f
c5 5 0 0.03096f
c6 1 0 0.0481583f
r7 35 39 7.36421
r8 34 35 10.4
r9 32 37 0.0338756
r10 32 34 0.14
r11 27 37 0.00880368
r12 26 38 6.80984
r13 25 26 10.8
r14 22 38 6.80984
r15 21 25 0.2
r16 21 22 10.8
r17 19 37 0.0338756
r18 19 25 0.26
r19 18 27 0.26
r20 17 18 0.17
r21 10 17 0.64
r22 10 11 9.6
r23 5 11 7.5254
r24 5 7 23.1
r25 1 11 7.5254
r26 1 3 65.45
.ends

.subckt PM_SIPO_32%X28/5 3 7 29 30
c0 28 0 0.00496f
c1 25 0 0.0111588f
c2 14 0 0.0309988f
c3 10 0 0.0626188f
c4 7 0 0.0206383f
c5 5 0 0.03096f
c6 1 0 0.0481583f
r7 38 39 0.17
r8 35 39 0.26
r9 28 35 0.00880368
r10 26 30 7.36311
r11 25 26 10.4
r12 23 28 0.0338756
r13 23 25 0.14
r14 21 29 6.8089
r15 20 21 10.8
r16 17 29 6.8089
r17 16 20 0.19998
r18 16 17 10.8
r19 14 28 0.0338756
r20 14 20 0.26
r21 10 38 0.64
r22 10 11 9.6
r23 5 11 7.5254
r24 5 7 23.1
r25 1 11 7.5254
r26 1 3 65.45
.ends

.subckt PM_SIPO_32%X28/6 3 7 38 39
c0 37 0 0.00496f
c1 34 0 0.0111588f
c2 19 0 0.0309988f
c3 10 0 0.0626188f
c4 7 0 0.0206383f
c5 5 0 0.03096f
c6 1 0 0.0481583f
r7 35 39 7.36421
r8 34 35 10.4
r9 32 37 0.0338756
r10 32 34 0.14
r11 27 37 0.00880368
r12 26 38 6.80984
r13 25 26 10.8
r14 22 38 6.80984
r15 21 25 0.2
r16 21 22 10.8
r17 19 37 0.0338756
r18 19 25 0.26
r19 18 27 0.26
r20 17 18 0.17
r21 10 17 0.64
r22 10 11 9.6
r23 5 11 7.5254
r24 5 7 23.1
r25 1 11 7.5254
r26 1 3 65.45
.ends

.subckt PM_SIPO_32%X29/5 3 7 29 30
c0 28 0 0.00496f
c1 25 0 0.0111588f
c2 14 0 0.0309988f
c3 10 0 0.0626188f
c4 7 0 0.0206383f
c5 5 0 0.03096f
c6 1 0 0.0481583f
r7 38 39 0.17
r8 35 39 0.26
r9 28 35 0.00880368
r10 26 30 7.36311
r11 25 26 10.4
r12 23 28 0.0338756
r13 23 25 0.14
r14 21 29 6.8089
r15 20 21 10.8
r16 17 29 6.8089
r17 16 20 0.19998
r18 16 17 10.8
r19 14 28 0.0338756
r20 14 20 0.26
r21 10 38 0.64
r22 10 11 9.6
r23 5 11 7.5254
r24 5 7 23.1
r25 1 11 7.5254
r26 1 3 65.45
.ends

.subckt PM_SIPO_32%X29/6 3 7 38 39
c0 37 0 0.00496f
c1 34 0 0.0111588f
c2 19 0 0.0309988f
c3 10 0 0.0626188f
c4 7 0 0.0206383f
c5 5 0 0.03096f
c6 1 0 0.0481583f
r7 35 39 7.36421
r8 34 35 10.4
r9 32 37 0.0338756
r10 32 34 0.14
r11 27 37 0.00880368
r12 26 38 6.80984
r13 25 26 10.8
r14 22 38 6.80984
r15 21 25 0.2
r16 21 22 10.8
r17 19 37 0.0338756
r18 19 25 0.26
r19 18 27 0.26
r20 17 18 0.17
r21 10 17 0.64
r22 10 11 9.6
r23 5 11 7.5254
r24 5 7 23.1
r25 1 11 7.5254
r26 1 3 65.45
.ends

.subckt PM_SIPO_32%X30/5 3 7 29 30
c0 28 0 0.00496f
c1 25 0 0.0111588f
c2 14 0 0.0309988f
c3 10 0 0.0626188f
c4 7 0 0.0206383f
c5 5 0 0.03096f
c6 1 0 0.0481583f
r7 38 39 0.17
r8 35 39 0.26
r9 28 35 0.00880368
r10 26 30 7.36311
r11 25 26 10.4
r12 23 28 0.0338756
r13 23 25 0.14
r14 21 29 6.8089
r15 20 21 10.8
r16 17 29 6.8089
r17 16 20 0.19998
r18 16 17 10.8
r19 14 28 0.0338756
r20 14 20 0.26
r21 10 38 0.64
r22 10 11 9.6
r23 5 11 7.5254
r24 5 7 23.1
r25 1 11 7.5254
r26 1 3 65.45
.ends

.subckt PM_SIPO_32%X30/6 3 7 38 39
c0 37 0 0.00496f
c1 34 0 0.0111588f