* File: thirty_two_bit_adder.pex.netlist.pex
* Created: Mon Dec 19 17:36:08 2022
* Program "Calibre xRC"
* Version "v2012.2_36.25"
* Nominal Temperature: 27C
* Circuit Temperature: 27C
* 
.subckt PM_THIRTY_TWO_BIT_ADDER%X0/X10/9 2 11 25 26 28 29
c3 22 0 0.0433988f
c4 14 0 0.00372f
c5 11 0 0.0433988f
c6 3 0 0.00372f
c7 2 0 0.0185981f
r8 19 22 0.26
r9 17 29 1.40625
r10 17 28 1.40625
r11 17 22 10.8
r12 17 19 10.8
r13 16 19 0.26
r14 16 17 10.8
r15 14 16 0.14
r16 8 11 0.26
r17 6 26 1.40625
r18 6 25 1.40625
r19 6 11 10.8
r20 6 8 10.8
r21 5 8 0.26
r22 5 6 10.8
r23 3 5 0.14
r24 2 14 0.0458951
r25 1 3 0.0458951
r26 1 2 0.64
.ends

.subckt PM_THIRTY_TWO_BIT_ADDER%X0/X10/10 1 2
r0 1 2 13.2
.ends

.subckt PM_THIRTY_TWO_BIT_ADDER%X0/X10/11 1 2
r0 1 2 13.2
.ends

.subckt PM_THIRTY_TWO_BIT_ADDER%X1/X10/9 2 11 25 26 28 29
c3 22 0 0.0433988f
c4 14 0 0.00372f
c5 11 0 0.0433988f
c6 3 0 0.00372f
c7 2 0 0.0185981f
r8 19 22 0.26
r9 17 29 1.40625
r10 17 28 1.40625
r11 17 22 10.8
r12 17 19 10.8
r13 16 19 0.26
r14 16 17 10.8
r15 14 16 0.14
r16 8 11 0.26
r17 6 26 1.40625
r18 6 25 1.40625
r19 6 11 10.8
r20 6 8 10.8
r21 5 8 0.26
r22 5 6 10.8
r23 3 5 0.14
r24 2 14 0.0458951
r25 1 3 0.0458951
r26 1 2 0.64
.ends

.subckt PM_THIRTY_TWO_BIT_ADDER%X1/X10/10 1 2
r0 1 2 13.2
.ends

.subckt PM_THIRTY_TWO_BIT_ADDER%X1/X10/11 1 2
r0 1 2 13.2
.ends

.subckt PM_THIRTY_TWO_BIT_ADDER%X2/X10/9 2 11 25 26 28 29
c3 22 0 0.0433988f
c4 14 0 0.00372f
c5 11 0 0.0433988f
c6 3 0 0.00372f
c7 2 0 0.0185981f
r8 19 22 0.26
r9 17 29 1.40625
r10 17 28 1.40625
r11 17 22 10.8
r12 17 19 10.8
r13 16 19 0.26
r14 16 17 10.8
r15 14 16 0.14
r16 8 11 0.26
r17 6 26 1.40625
r18 6 25 1.40625
r19 6 11 10.8
r20 6 8 10.8
r21 5 8 0.26
r22 5 6 10.8
r23 3 5 0.14
r24 2 14 0.0458951
r25 1 3 0.0458951
r26 1 2 0.64
.ends

.subckt PM_THIRTY_TWO_BIT_ADDER%X2/X10/10 1 2
r0 1 2 13.2
.ends

.subckt PM_THIRTY_TWO_BIT_ADDER%X2/X10/11 1 2
r0 1 2 13.2
.ends

.subckt PM_THIRTY_TWO_BIT_ADDER%X3/X10/9 2 11 25 26 28 29
c3 22 0 0.0433988f
c4 14 0 0.00372f
c5 11 0 0.0433988f
c6 3 0 0.00372f
c7 2 0 0.0185981f
r8 19 22 0.26
r9 17 29 1.40625
r10 17 28 1.40625
r11 17 22 10.8
r12 17 19 10.8
r13 16 19 0.26
r14 16 17 10.8
r15 14 16 0.14
r16 8 11 0.26
r17 6 26 1.40625
r18 6 25 1.40625
r19 6 11 10.8
r20 6 8 10.8
r21 5 8 0.26
r22 5 6 10.8
r23 3 5 0.14
r24 2 14 0.0458951
r25 1 3 0.0458951
r26 1 2 0.64
.ends

.subckt PM_THIRTY_TWO_BIT_ADDER%X3/X10/10 1 2
r0 1 2 13.2
.ends

.subckt PM_THIRTY_TWO_BIT_ADDER%X3/X10/11 1 2
r0 1 2 13.2
.ends

.subckt PM_THIRTY_TWO_BIT_ADDER%X4/X10/9 2 11 25 26 28 29
c3 22 0 0.0433988f
c4 14 0 0.00372f
c5 11 0 0.0433988f
c6 3 0 0.00372f
c7 2 0 0.0185981f
r8 19 22 0.26
r9 17 29 1.40625
r10 17 28 1.40625
r11 17 22 10.8
r12 17 19 10.8
r13 16 19 0.26
r14 16 17 10.8
r15 14 16 0.14
r16 8 11 0.26
r17 6 26 1.40625
r18 6 25 1.40625
r19 6 11 10.8
r20 6 8 10.8
r21 5 8 0.26
r22 5 6 10.8
r23 3 5 0.14
r24 2 14 0.0458951
r25 1 3 0.0458951
r26 1 2 0.64
.ends

.subckt PM_THIRTY_TWO_BIT_ADDER%X4/X10/10 1 2
r0 1 2 13.2
.ends

.subckt PM_THIRTY_TWO_BIT_ADDER%X4/X10/11 1 2
r0 1 2 13.2
.ends

.subckt PM_THIRTY_TWO_BIT_ADDER%X5/X10/9 2 11 25 26 28 29
c3 22 0 0.0433988f
c4 14 0 0.00372f
c5 11 0 0.0433988f
c6 3 0 0.00372f
c7 2 0 0.0185981f
r8 19 22 0.26
r9 17 29 1.40625
r10 17 28 1.40625
r11 17 22 10.8
r12 17 19 10.8
r13 16 19 0.26
r14 16 17 10.8
r15 14 16 0.14
r16 8 11 0.26
r17 6 26 1.40625
r18 6 25 1.40625
r19 6 11 10.8
r20 6 8 10.8
r21 5 8 0.26
r22 5 6 10.8
r23 3 5 0.14
r24 2 14 0.0458951
r25 1 3 0.0458951
r26 1 2 0.64
.ends

.subckt PM_THIRTY_TWO_BIT_ADDER%X5/X10/10 1 2
r0 1 2 13.2
.ends

.subckt PM_THIRTY_TWO_BIT_ADDER%X5/X10/11 1 2
r0 1 2 13.2
.ends

.subckt PM_THIRTY_TWO_BIT_ADDER%X6/X10/9 2 11 25 26 28 29
c3 22 0 0.0433988f
c4 14 0 0.00372f
c5 11 0 0.0433988f
c6 3 0 0.00372f
c7 2 0 0.0185981f
r8 19 22 0.26
r9 17 29 1.40625
r10 17 28 1.40625
r11 17 22 10.8
r12 17 19 10.8
r13 16 19 0.26
r14 16 17 10.8
r15 14 16 0.14
r16 8 11 0.26
r17 6 26 1.40625
r18 6 25 1.40625
r19 6 11 10.8
r20 6 8 10.8
r21 5 8 0.26
r22 5 6 10.8
r23 3 5 0.14
r24 2 14 0.0458951
r25 1 3 0.0458951
r26 1 2 0.64
.ends

.subckt PM_THIRTY_TWO_BIT_ADDER%X6/X10/10 1 2
r0 1 2 13.2
.ends

.subckt PM_THIRTY_TWO_BIT_ADDER%X6/X10/11 1 2
r0 1 2 13.2
.ends

.subckt PM_THIRTY_TWO_BIT_ADDER%X7/X10/9 2 11 25 26 28 29
c3 22 0 0.0433988f
c4 14 0 0.00372f
c5 11 0 0.0433988f
c6 3 0 0.00372f
c7 2 0 0.0185981f
r8 19 22 0.26
r9 17 29 1.40625
r10 17 28 1.40625
r11 17 22 10.8
r12 17 19 10.8
r13 16 19 0.26
r14 16 17 10.8
r15 14 16 0.14
r16 8 11 0.26
r17 6 26 1.40625
r18 6 25 1.40625
r19 6 11 10.8
r20 6 8 10.8
r21 5 8 0.26
r22 5 6 10.8
r23 3 5 0.14
r24 2 14 0.0458951
r25 1 3 0.0458951
r26 1 2 0.64
.ends

.subckt PM_THIRTY_TWO_BIT_ADDER%X7/X10/10 1 2
r0 1 2 13.2
.ends

.subckt PM_THIRTY_TWO_BIT_ADDER%X7/X10/11 1 2
r0 1 2 13.2
.ends

.subckt PM_THIRTY_TWO_BIT_ADDER%X0/X11/X14/9 2 25 26 28 29
c2 22 0 0.0433988f
c3 14 0 0.00372f
c4 11 0 0.0433988f
c5 3 0 0.00372f
c6 2 0 0.0185981f
r7 19 22 0.26
r8 17 29 1.40625
r9 17 28 1.40625
r10 17 22 10.8
r11 17 19 10.8
r12 16 19 0.26
r13 16 17 10.8
r14 14 16 0.14
r15 8 11 0.26
r16 6 26 1.40625
r17 6 25 1.40625
r18 6 11 10.8
r19 6 8 10.8
r20 5 8 0.26
r21 5 6 10.8
r22 3 5 0.14
r23 2 14 0.0458951
r24 1 3 0.0458951
r25 1 2 0.64
.ends

.subckt PM_THIRTY_TWO_BIT_ADDER%X0/X11/X14/10 1 2
r0 1 2 13.2
.ends

.subckt PM_THIRTY_TWO_BIT_ADDER%X0/X11/X14/11 1 2
r0 1 2 13.2
.ends

.subckt PM_THIRTY_TWO_BIT_ADDER%X0/X11/X15/9 2 11 14 22 25 26 28 29
c7 22 0 0.0433988f
c8 14 0 0.00372f
c9 11 0 0.0433988f
c10 3 0 0.00372f
c11 2 0 0.0185981f
r12 19 22 0.26
r13 17 29 1.40625
r14 17 28 1.40625
r15 17 22 10.8
r16 17 19 10.8
r17 16 19 0.26
r18 16 17 10.8
r19 14 16 0.14
r20 8 11 0.26
r21 6 26 1.40625
r22 6 25 1.40625
r23 6 11 10.8
r24 6 8 10.8
r25 5 8 0.26
r26 5 6 10.8
r27 3 5 0.14
r28 2 14 0.0458951
r29 1 3 0.0458951
r30 1 2 0.64
.ends

.subckt PM_THIRTY_TWO_BIT_ADDER%X0/X11/X15/10 1 2
r0 1 2 13.2
.ends

.subckt PM_THIRTY_TWO_BIT_ADDER%X0/X11/X15/11 1 2
r0 1 2 13.2
.ends

.subckt PM_THIRTY_TWO_BIT_ADDER%X0/X11/X16/9 2 25 26 28 29
c2 22 0 0.0433988f
c3 14 0 0.00372f
c4 11 0 0.0433988f
c5 3 0 0.00372f
c6 2 0 0.0185981f
r7 19 22 0.26
r8 17 29 1.40625
r9 17 28 1.40625
r10 17 22 10.8
r11 17 19 10.8
r12 16 19 0.26
r13 16 17 10.8
r14 14 16 0.14
r15 8 11 0.26
r16 6 26 1.40625
r17 6 25 1.40625
r18 6 11 10.8
r19 6 8 10.8
r20 5 8 0.26
r21 5 6 10.8
r22 3 5 0.14
r23 2 14 0.0458951
r24 1 3 0.0458951
r25 1 2 0.64
.ends

.subckt PM_THIRTY_TWO_BIT_ADDER%X0/X11/X16/10 1 2
r0 1 2 13.2
.ends

.subckt PM_THIRTY_TWO_BIT_ADDER%X0/X11/X16/11 1 2
r0 1 2 13.2
.ends

.subckt PM_THIRTY_TWO_BIT_ADDER%X0/X12/X14/9 2 25 26 28 29
c2 22 0 0.0433988f
c3 14 0 0.00372f
c4 11 0 0.0433988f
c5 3 0 0.00372f
c6 2 0 0.0185981f
r7 19 22 0.26
r8 17 29 1.40625
r9 17 28 1.40625
r10 17 22 10.8
r11 17 19 10.8
r12 16 19 0.26
r13 16 17 10.8
r14 14 16 0.14
r15 8 11 0.26
r16 6 26 1.40625
r17 6 25 1.40625
r18 6 11 10.8
r19 6 8 10.8
r20 5 8 0.26
r21 5 6 10.8
r22 3 5 0.14
r23 2 14 0.0458951
r24 1 3 0.0458951
r25 1 2 0.64
.ends

.subckt PM_THIRTY_TWO_BIT_ADDER%X0/X12/X14/10 1 2
r0 1 2 13.2
.ends

.subckt PM_THIRTY_TWO_BIT_ADDER%X0/X12/X14/11 1 2
r0 1 2 13.2
.ends

.subckt PM_THIRTY_TWO_BIT_ADDER%X0/X12/X15/9 2 11 14 22 25 26 28 29
c7 22 0 0.0433988f
c8 14 0 0.00372f
c9 11 0 0.0433988f
c10 3 0 0.00372f
c11 2 0 0.0185981f
r12 19 22 0.26
r13 17 29 1.40625
r14 17 28 1.40625
r15 17 22 10.8
r16 17 19 10.8
r17 16 19 0.26
r18 16 17 10.8
r19 14 16 0.14
r20 8 11 0.26
r21 6 26 1.40625
r22 6 25 1.40625
r23 6 11 10.8
r24 6 8 10.8
r25 5 8 0.26
r26 5 6 10.8
r27 3 5 0.14
r28 2 14 0.0458951
r29 1 3 0.0458951
r30 1 2 0.64
.ends

.subckt PM_THIRTY_TWO_BIT_ADDER%X0/X12/X15/10 1 2
r0 1 2 13.2
.ends

.subckt PM_THIRTY_TWO_BIT_ADDER%X0/X12/X15/11 1 2
r0 1 2 13.2
.ends

.subckt PM_THIRTY_TWO_BIT_ADDER%X0/X12/X16/9 2 25 26 28 29
c2 22 0 0.0433988f
c3 14 0 0.00372f
c4 11 0 0.0433988f
c5 3 0 0.00372f
c6 2 0 0.0185981f
r7 19 22 0.26
r8 17 29 1.40625
r9 17 28 1.40625
r10 17 22 10.8
r11 17 19 10.8
r12 16 19 0.26
r13 16 17 10.8
r14 14 16 0.14
r15 8 11 0.26
r16 6 26 1.40625
r17 6 25 1.40625
r18 6 11 10.8
r19 6 8 10.8
r20 5 8 0.26
r21 5 6 10.8
r22 3 5 0.14
r23 2 14 0.0458951
r24 1 3 0.0458951
r25 1 2 0.64
.ends

.subckt PM_THIRTY_TWO_BIT_ADDER%X0/X12/X16/10 1 2
r0 1 2 13.2
.ends

.subckt PM_THIRTY_TWO_BIT_ADDER%X0/X12/X16/11 1 2
r0 1 2 13.2
.ends

.subckt PM_THIRTY_TWO_BIT_ADDER%X0/X13/X14/9 2 25 26 28 29
c2 22 0 0.0433988f
c3 14 0 0.00372f
c4 11 0 0.0433988f
c5 3 0 0.00372f
c6 2 0 0.0185981f
r7 19 22 0.26
r8 17 29 1.40625
r9 17 28 1.40625
r10 17 22 10.8
r11 17 19 10.8
r12 16 19 0.26
r13 16 17 10.8
r14 14 16 0.14
r15 8 11 0.26
r16 6 26 1.40625
r17 6 25 1.40625
r18 6 11 10.8
r19 6 8 10.8
r20 5 8 0.26
r21 5 6 10.8
r22 3 5 0.14
r23 2 14 0.0458951
r24 1 3 0.0458951
r25 1 2 0.64
.ends

.subckt PM_THIRTY_TWO_BIT_ADDER%X0/X13/X14/10 1 2
r0 1 2 13.2
.ends

.subckt PM_THIRTY_TWO_BIT_ADDER%X0/X13/X14/11 1 2
r0 1 2 13.2
.ends

.subckt PM_THIRTY_TWO_BIT_ADDER%X0/X13/X15/9 2 11 14 22 25 26 28 29
c7 22 0 0.0433988f
c8 14 0 0.00372f
c9 11 0 0.0433988f
c10 3 0 0.00372f
c11 2 0 0.0185981f
r12 19 22 0.26
r13 17 29 1.40625
r14 17 28 1.40625
r15 17 22 10.8
r16 17 19 10.8
r17 16 19 0.26
r18 16 17 10.8
r19 14 16 0.14
r20 8 11 0.26
r21 6 26 1.40625
r22 6 25 1.40625
r23 6 11 10.8
r24 6 8 10.8
r25 5 8 0.26
r26 5 6 10.8
r27 3 5 0.14
r28 2 14 0.0458951
r29 1 3 0.0458951
r30 1 2 0.64
.ends

.subckt PM_THIRTY_TWO_BIT_ADDER%X0/X13/X15/10 1 2
r0 1 2 13.2
.ends

.subckt PM_THIRTY_TWO_BIT_ADDER%X0/X13/X15/11 1 2
r0 1 2 13.2
.ends

.subckt PM_THIRTY_TWO_BIT_ADDER%X0/X13/X16/9 2 25 26 28 29
c2 22 0 0.0433988f
c3 14 0 0.00372f
c4 11 0 0.0433988f
c5 3 0 0.00372f
c6 2 0 0.0185981f
r7 19 22 0.26
r8 17 29 1.40625
r9 17 28 1.40625
r10 17 22 10.8
r11 17 19 10.8
r12 16 19 0.26
r13 16 17 10.8
r14 14 16 0.14
r15 8 11 0.26
r16 6 26 1.40625
r17 6 25 1.40625
r18 6 11 10.8
r19 6 8 10.8
r20 5 8 0.26
r21 5 6 10.8
r22 3 5 0.14
r23 2 14 0.0458951
r24 1 3 0.0458951
r25 1 2 0.64
.ends

.subckt PM_THIRTY_TWO_BIT_ADDER%X0/X13/X16/10 1 2
r0 1 2 13.2
.ends

.subckt PM_THIRTY_TWO_BIT_ADDER%X0/X13/X16/11 1 2
r0 1 2 13.2
.ends

.subckt PM_THIRTY_TWO_BIT_ADDER%X0/X14/X14/9 2 25 26 28 29
c2 22 0 0.0433988f
c3 14 0 0.00372f
c4 11 0 0.0433988f
c5 3 0 0.00372f
c6 2 0 0.0185981f
r7 19 22 0.26
r8 17 29 1.40625
r9 17 28 1.40625
r10 17 22 10.8
r11 17 19 10.8
r12 16 19 0.26
r13 16 17 10.8
r14 14 16 0.14
r15 8 11 0.26
r16 6 26 1.40625
r17 6 25 1.40625
r18 6 11 10.8
r19 6 8 10.8
r20 5 8 0.26
r21 5 6 10.8
r22 3 5 0.14
r23 2 14 0.0458951
r24 1 3 0.0458951
r25 1 2 0.64
.ends

.subckt PM_THIRTY_TWO_BIT_ADDER%X0/X14/X14/10 1 2
r0 1 2 13.2
.ends

.subckt PM_THIRTY_TWO_BIT_ADDER%X0/X14/X14/11 1 2
r0 1 2 13.2
.ends

.subckt PM_THIRTY_TWO_BIT_ADDER%X0/X14/X15/9 2 11 14 22 25 26 28 29
c7 22 0 0.0433988f
c8 14 0 0.00372f
c9 11 0 0.0433988f
c10 3 0 0.00372f
c11 2 0 0.0185981f
r12 19 22 0.26
r13 17 29 1.40625
r14 17 28 1.40625
r15 17 22 10.8
r16 17 19 10.8
r17 16 19 0.26
r18 16 17 10.8
r19 14 16 0.14
r20 8 11 0.26
r21 6 26 1.40625
r22 6 25 1.40625
r23 6 11 10.8
r24 6 8 10.8
r25 5 8 0.26
r26 5 6 10.8
r27 3 5 0.14
r28 2 14 0.0458951
r29 1 3 0.0458951
r30 1 2 0.64
.ends

.subckt PM_THIRTY_TWO_BIT_ADDER%X0/X14/X15/10 1 2
r0 1 2 13.2
.ends

.subckt PM_THIRTY_TWO_BIT_ADDER%X0/X14/X15/11 1 2
r0 1 2 13.2
.ends

.subckt PM_THIRTY_TWO_BIT_ADDER%X0/X14/X16/9 2 25 26 28 29
c2 22 0 0.0433988f
c3 14 0 0.00372f
c4 11 0 0.0433988f
c5 3 0 0.00372f
c6 2 0 0.0185981f
r7 19 22 0.26
r8 17 29 1.40625
r9 17 28 1.40625
r10 17 22 10.8
r11 17 19 10.8
r12 16 19 0.26
r13 16 17 10.8
r14 14 16 0.14
r15 8 11 0.26
r16 6 26 1.40625
r17 6 25 1.40625
r18 6 11 10.8
r19 6 8 10.8
r20 5 8 0.26
r21 5 6 10.8
r22 3 5 0.14
r23 2 14 0.0458951
r24 1 3 0.0458951
r25 1 2 0.64
.ends

.subckt PM_THIRTY_TWO_BIT_ADDER%X0/X14/X16/10 1 2
r0 1 2 13.2
.ends

.subckt PM_THIRTY_TWO_BIT_ADDER%X0/X14/X16/11 1 2
r0 1 2 13.2
.ends

.subckt PM_THIRTY_TWO_BIT_ADDER%X1/X11/X14/9 2 25 26 28 29
c2 22 0 0.0433988f
c3 14 0 0.00372f
c4 11 0 0.0433988f
c5 3 0 0.00372f
c6 2 0 0.0185981f
r7 19 22 0.26
r8 17 29 1.40625
r9 17 28 1.40625
r10 17 22 10.8
r11 17 19 10.8
r12 16 19 0.26
r13 16 17 10.8
r14 14 16 0.14
r15 8 11 0.26
r16 6 26 1.40625
r17 6 25 1.40625
r18 6 11 10.8
r19 6 8 10.8
r20 5 8 0.26
r21 5 6 10.8
r22 3 5 0.14
r23 2 14 0.0458951
r24 1 3 0.0458951
r25 1 2 0.64
.ends

.subckt PM_THIRTY_TWO_BIT_ADDER%X1/X11/X14/10 1 2
r0 1 2 13.2
.ends

.subckt PM_THIRTY_TWO_BIT_ADDER%X1/X11/X14/11 1 2
r0 1 2 13.2
.ends

.subckt PM_THIRTY_TWO_BIT_ADDER%X1/X11/X15/9 2 11 14 22 25 26 28 29
c7 22 0 0.0433988f
c8 14 0 0.00372f
c9 11 0 0.0433988f
c10 3 0 0.00372f
c11 2 0 0.0185981f
r12 19 22 0.26
r13 17 29 1.40625
r14 17 28 1.40625
r15 17 22 10.8
r16 17 19 10.8
r17 16 19 0.26
r18 16 17 10.8
r19 14 16 0.14
r20 8 11 0.26
r21 6 26 1.40625
r22 6 25 1.40625
r23 6 11 10.8
r24 6 8 10.8
r25 5 8 0.26
r26 5 6 10.8
r27 3 5 0.14
r28 2 14 0.0458951
r29 1 3 0.0458951
r30 1 2 0.64
.ends

.subckt PM_THIRTY_TWO_BIT_ADDER%X1/X11/X15/10 1 2
r0 1 2 13.2
.ends

.subckt PM_THIRTY_TWO_BIT_ADDER%X1/X11/X15/11 1 2
r0 1 2 13.2
.ends

.subckt PM_THIRTY_TWO_BIT_ADDER%X1/X11/X16/9 2 25 26 28 29
c2 22 0 0.0433988f
c3 14 0 0.00372f
c4 11 0 0.0433988f
c5 3 0 0.00372f
c6 2 0 0.0185981f
r7 19 22 0.26
r8 17 29 1.40625
r9 17 28 1.40625
r10 17 22 10.8
r11 17 19 10.8
r12 16 19 0.26
r13 16 17 10.8
r14 14 16 0.14
r15 8 11 0.26
r16 6 26 1.40625
r17 6 25 1.40625
r18 6 11 10.8
r19 6 8 10.8
r20 5 8 0.26
r21 5 6 10.8
r22 3 5 0.14
r23 2 14 0.0458951
r24 1 3 0.0458951
r25 1 2 0.64
.ends

.subckt PM_THIRTY_TWO_BIT_ADDER%X1/X11/X16/10 1 2
r0 1 2 13.2
.ends

.subckt PM_THIRTY_TWO_BIT_ADDER%X1/X11/X16/11 1 2
r0 1 2 13.2
.ends

.subckt PM_THIRTY_TWO_BIT_ADDER%X1/X12/X14/9 2 25 26 28 29
c2 22 0 0.0433988f
c3 14 0 0.00372f
c4 11 0 0.0433988f
c5 3 0 0.00372f
c6 2 0 0.0185981f
r7 19 22 0.26
r8 17 29 1.40625
r9 17 28 1.40625
r10 17 22 10.8
r11 17 19 10.8
r12 16 19 0.26
r13 16 17 10.8
r14 14 16 0.14
r15 8 11 0.26
r16 6 26 1.40625
r17 6 25 1.40625
r18 6 11 10.8
r19 6 8 10.8
r20 5 8 0.26
r21 5 6 10.8
r22 3 5 0.14
r23 2 14 0.0458951
r24 1 3 0.0458951
r25 1 2 0.64
.ends

.subckt PM_THIRTY_TWO_BIT_ADDER%X1/X12/X14/10 1 2
r0 1 2 13.2
.ends

.subckt PM_THIRTY_TWO_BIT_ADDER%X1/X12/X14/11 1 2
r0 1 2 13.2
.ends

.subckt PM_THIRTY_TWO_BIT_ADDER%X1/X12/X15/9 2 11 14 22 25 26 28 29
c7 22 0 0.0433988f
c8 14 0 0.00372f
c9 11 0 0.0433988f
c10 3 0 0.00372f
c11 2 0 0.0185981f
r12 19 22 0.26
r13 17 29 1.40625
r14 17 28 1.40625
r15 17 22 10.8
r16 17 19 10.8
r17 16 19 0.26
r18 16 17 10.8
r19 14 16 0.14
r20 8 11 0.26
r21 6 26 1.40625
r22 6 25 1.40625
r23 6 11 10.8
r24 6 8 10.8
r25 5 8 0.26
r26 5 6 10.8
r27 3 5 0.14
r28 2 14 0.0458951
r29 1 3 0.0458951
r30 1 2 0.64
.ends

.subckt PM_THIRTY_TWO_BIT_ADDER%X1/X12/X15/10 1 2
r0 1 2 13.2
.ends

.subckt PM_THIRTY_TWO_BIT_ADDER%X1/X12/X15/11 1 2
r0 1 2 13.2
.ends

.subckt PM_THIRTY_TWO_BIT_ADDER%X1/X12/X16/9 2 25 26 28 29
c2 22 0 0.0433988f
c3 14 0 0.00372f
c4 11 0 0.0433988f
c5 3 0 0.00372f
c6 2 0 0.0185981f
r7 19 22 0.26
r8 17 29 1.40625
r9 17 28 1.40625
r10 17 22 10.8
r11 17 19 10.8
r12 16 19 0.26
r13 16 17 10.8
r14 14 16 0.14
r15 8 11 0.26
r16 6 26 1.40625
r17 6 25 1.40625
r18 6 11 10.8
r19 6 8 10.8
r20 5 8 0.26
r21 5 6 10.8
r22 3 5 0.14
r23 2 14 0.0458951
r24 1 3 0.0458951
r25 1 2 0.64
.ends

.subckt PM_THIRTY_TWO_BIT_ADDER%X1/X12/X16/10 1 2
r0 1 2 13.2
.ends

.subckt PM_THIRTY_TWO_BIT_ADDER%X1/X12/X16/11 1 2
r0 1 2 13.2
.ends

.subckt PM_THIRTY_TWO_BIT_ADDER%X1/X13/X14/9 2 25 26 28 29
c2 22 0 0.0433988f
c3 14 0 0.00372f
c4 11 0 0.0433988f
c5 3 0 0.00372f
c6 2 0 0.0185981f
r7 19 22 0.26
r8 17 29 1.40625
r9 17 28 1.40625
r10 17 22 10.8
r11 17 19 10.8
r12 16 19 0.26
r13 16 17 10.8
r14 14 16 0.14
r15 8 11 0.26
r16 6 26 1.40625
r17 6 25 1.40625
r18 6 11 10.8
r19 6 8 10.8
r20 5 8 0.26
r21 5 6 10.8
r22 3 5 0.14
r23 2 14 0.0458951
r24 1 3 0.0458951
r25 1 2 0.64
.ends

.subckt PM_THIRTY_TWO_BIT_ADDER%X1/X13/X14/10 1 2
r0 1 2 13.2
.ends

.subckt PM_THIRTY_TWO_BIT_ADDER%X1/X13/X14/11 1 2
r0 1 2 13.2
.ends

.subckt PM_THIRTY_TWO_BIT_ADDER%X1/X13/X15/9 2 11 14 22 25 26 28 29
c7 22 0 0.0433988f
c8 14 0 0.00372f
c9 11 0 0.0433988f
c10 3 0 0.00372f
c11 2 0 0.0185981f
r12 19 22 0.26
r13 17 29 1.40625
r14 17 28 1.40625
r15 17 22 10.8
r16 17 19 10.8
r17 16 19 0.26
r18 16 17 10.8
r19 14 16 0.14
r20 8 11 0.26
r21 6 26 1.40625
r22 6 25 1.40625
r23 6 11 10.8
r24 6 8 10.8
r25 5 8 0.26
r26 5 6 10.8
r27 3 5 0.14
r28 2 14 0.0458951
r29 1 3 0.0458951
r30 1 2 0.64
.ends

.subckt PM_THIRTY_TWO_BIT_ADDER%X1/X13/X15/10 1 2
r0 1 2 13.2
.ends

.subckt PM_THIRTY_TWO_BIT_ADDER%X1/X13/X15/11 1 2
r0 1 2 13.2
.ends

.subckt PM_THIRTY_TWO_BIT_ADDER%X1/X13/X16/9 2 25 26 28 29
c2 22 0 0.0433988f
c3 14 0 0.00372f
c4 11 0 0.0433988f
c5 3 0 0.00372f
c6 2 0 0.0185981f
r7 19 22 0.26
r8 17 29 1.40625
r9 17 28 1.40625
r10 17 22 10.8
r11 17 19 10.8
r12 16 19 0.26
r13 16 17 10.8
r14 14 16 0.14
r15 8 11 0.26
r16 6 26 1.40625
r17 6 25 1.40625
r18 6 11 10.8
r19 6 8 10.8
r20 5 8 0.26
r21 5 6 10.8
r22 3 5 0.14
r23 2 14 0.0458951
r24 1 3 0.0458951
r25 1 2 0.64
.ends

.subckt PM_THIRTY_TWO_BIT_ADDER%X1/X13/X16/10 1 2
r0 1 2 13.2
.ends

.subckt PM_THIRTY_TWO_BIT_ADDER%X1/X13/X16/11 1 2
r0 1 2 13.2
.ends

.subckt PM_THIRTY_TWO_BIT_ADDER%X1/X14/X14/9 2 25 26 28 29
c2 22 0 0.0433988f
c3 14 0 0.00372f
c4 11 0 0.0433988f
c5 3 0 0.00372f
c6 2 0 0.0185981f
r7 19 22 0.26
r8 17 29 1.40625
r9 17 28 1.40625
r10 17 22 10.8
r11 17 19 10.8
r12 16 19 0.26
r13 16 17 10.8
r14 14 16 0.14
r15 8 11 0.26
r16 6 26 1.40625
r17 6 25 1.40625
r18 6 11 10.8
r19 6 8 10.8
r20 5 8 0.26
r21 5 6 10.8
r22 3 5 0.14
r23 2 14 0.0458951
r24 1 3 0.0458951
r25 1 2 0.64
.ends

.subckt PM_THIRTY_TWO_BIT_ADDER%X1/X14/X14/10 1 2
r0 1 2 13.2
.ends

.subckt PM_THIRTY_TWO_BIT_ADDER%X1/X14/X14/11 1 2
r0 1 2 13.2
.ends

.subckt PM_THIRTY_TWO_BIT_ADDER%X1/X14/X15/9 2 11 14 22 25 26 28 29
c7 22 0 0.0433988f
c8 14 0 0.00372f
c9 11 0 0.0433988f
c10 3 0 0.00372f
c11 2 0 0.0185981f
r12 19 22 0.26
r13 17 29 1.40625
r14 17 28 1.40625
r15 17 22 10.8
r16 17 19 10.8
r17 16 19 0.26
r18 16 17 10.8
r19 14 16 0.14
r20 8 11 0.26
r21 6 26 1.40625
r22 6 25 1.40625
r23 6 11 10.8
r24 6 8 10.8
r25 5 8 0.26
r26 5 6 10.8
r27 3 5 0.14
r28 2 14 0.0458951
r29 1 3 0.0458951
r30 1 2 0.64
.ends

.subckt PM_THIRTY_TWO_BIT_ADDER%X1/X14/X15/10 1 2
r0 1 2 13.2
.ends

.subckt PM_THIRTY_TWO_BIT_ADDER%X1/X14/X15/11 1 2
r0 1 2 13.2
.ends

.subckt PM_THIRTY_TWO_BIT_ADDER%X1/X14/X16/9 2 25 26 28 29
c2 22 0 0.0433988f
c3 14 0 0.00372f
c4 11 0 0.0433988f
c5 3 0 0.00372f
c6 2 0 0.0185981f
r7 19 22 0.26
r8 17 29 1.40625
r9 17 28 1.40625
r10 17 22 10.8
r11 17 19 10.8
r12 16 19 0.26
r13 16 17 10.8
r14 14 16 0.14
r15 8 11 0.26
r16 6 26 1.40625
r17 6 25 1.40625
r18 6 11 10.8
r19 6 8 10.8
r20 5 8 0.26
r21 5 6 10.8
r22 3 5 0.14
r23 2 14 0.0458951
r24 1 3 0.0458951
r25 1 2 0.64
.ends

.subckt PM_THIRTY_TWO_BIT_ADDER%X1/X14/X16/10 1 2
r0 1 2 13.2
.ends

.subckt PM_THIRTY_TWO_BIT_ADDER%X1/X14/X16/11 1 2
r0 1 2 13.2
.ends

.subckt PM_THIRTY_TWO_BIT_ADDER%X2/X11/X14/9 2 25 26 28 29
c2 22 0 0.0433988f
c3 14 0 0.00372f
c4 11 0 0.0433988f
c5 3 0 0.00372f
c6 2 0 0.0185981f
r7 19 22 0.26
r8 17 29 1.40625
r9 17 28 1.40625
r10 17 22 10.8
r11 17 19 10.8
r12 16 19 0.26
r13 16 17 10.8
r14 14 16 0.14
r15 8 11 0.26
r16 6 26 1.40625
r17 6 25 1.40625
r18 6 11 10.8
r19 6 8 10.8
r20 5 8 0.26
r21 5 6 10.8
r22 3 5 0.14
r23 2 14 0.0458951
r24 1 3 0.0458951
r25 1 2 0.64
.ends

.subckt PM_THIRTY_TWO_BIT_ADDER%X2/X11/X14/10 1 2
r0 1 2 13.2
.ends

.subckt PM_THIRTY_TWO_BIT_ADDER%X2/X11/X14/11 1 2
r0 1 2 13.2
.ends

.subckt PM_THIRTY_TWO_BIT_ADDER%X2/X11/X15/9 2 11 14 22 25 26 28 29
c7 22 0 0.0433988f
c8 14 0 0.00372f
c9 11 0 0.0433988f
c10 3 0 0.00372f
c11 2 0 0.0185981f
r12 19 22 0.26
r13 17 29 1.40625
r14 17 28 1.40625
r15 17 22 10.8
r16 17 19 10.8
r17 16 19 0.26
r18 16 17 10.8
r19 14 16 0.14
r20 8 11 0.26
r21 6 26 1.40625
r22 6 25 1.40625
r23 6 11 10.8
r24 6 8 10.8
r25 5 8 0.26
r26 5 6 10.8
r27 3 5 0.14
r28 2 14 0.0458951
r29 1 3 0.0458951
r30 1 2 0.64
.ends

.subckt PM_THIRTY_TWO_BIT_ADDER%X2/X11/X15/10 1 2
r0 1 2 13.2
.ends

.subckt PM_THIRTY_TWO_BIT_ADDER%X2/X11/X15/11 1 2
r0 1 2 13.2
.ends

.subckt PM_THIRTY_TWO_BIT_ADDER%X2/X11/X16/9 2 25 26 28 29
c2 22 0 0.0433988f
c3 14 0 0.00372f
c4 11 0 0.0433988f
c5 3 0 0.00372f
c6 2 0 0.0185981f
r7 19 22 0.26
r8 17 29 1.40625
r9 17 28 1.40625
r10 17 22 10.8
r11 17 19 10.8
r12 16 19 0.26
r13 16 17 10.8
r14 14 16 0.14
r15 8 11 0.26
r16 6 26 1.40625
r17 6 25 1.40625
r18 6 11 10.8
r19 6 8 10.8
r20 5 8 0.26
r21 5 6 10.8
r22 3 5 0.14
r23 2 14 0.0458951
r24 1 3 0.0458951
r25 1 2 0.64
.ends

.subckt PM_THIRTY_TWO_BIT_ADDER%X2/X11/X16/10 1 2
r0 1 2 13.2
.ends

.subckt PM_THIRTY_TWO_BIT_ADDER%X2/X11/X16/11 1 2
r0 1 2 13.2
.ends

.subckt PM_THIRTY_TWO_BIT_ADDER%X2/X12/X14/9 2 25 26 28 29
c2 22 0 0.0433988f
c3 14 0 0.00372f
c4 11 0 0.0433988f
c5 3 0 0.00372f
c6 2 0 0.0185981f
r7 19 22 0.26
r8 17 29 1.40625
r9 17 28 1.40625
r10 17 22 10.8
r11 17 19 10.8
r12 16 19 0.26
r13 16 17 10.8
r14 14 16 0.14
r15 8 11 0.26
r16 6 26 1.40625
r17 6 25 1.40625
r18 6 11 10.8
r19 6 8 10.8
r20 5 8 0.26
r21 5 6 10.8
r22 3 5 0.14
r23 2 14 0.0458951
r24 1 3 0.0458951
r25 1 2 0.64
.ends

.subckt PM_THIRTY_TWO_BIT_ADDER%X2/X12/X14/10 1 2
r0 1 2 13.2
.ends

.subckt PM_THIRTY_TWO_BIT_ADDER%X2/X12/X14/11 1 2
r0 1 2 13.2
.ends

.subckt PM_THIRTY_TWO_BIT_ADDER%X2/X12/X15/9 2 11 14 22 25 26 28 29
c7 22 0 0.0433988f
c8 14 0 0.00372f
c9 11 0 0.0433988f
c10 3 0 0.00372f
c11 2 0 0.0185981f
r12 19 22 0.26
r13 17 29 1.40625
r14 17 28 1.40625
r15 17 22 10.8
r16 17 19 10.8
r17 16 19 0.26
r18 16 17 10.8
r19 14 16 0.14
r20 8 11 0.26
r21 6 26 1.40625
r22 6 25 1.40625
r23 6 11 10.8
r24 6 8 10.8
r25 5 8 0.26
r26 5 6 10.8
r27 3 5 0.14
r28 2 14 0.0458951
r29 1 3 0.0458951
r30 1 2 0.64
.ends

.subckt PM_THIRTY_TWO_BIT_ADDER%X2/X12/X15/10 1 2
r0 1 2 13.2
.ends

.subckt PM_THIRTY_TWO_BIT_ADDER%X2/X12/X15/11 1 2
r0 1 2 13.2
.ends

.subckt PM_THIRTY_TWO_BIT_ADDER%X2/X12/X16/9 2 25 26 28 29
c2 22 0 0.0433988f
c3 14 0 0.00372f
c4 11 0 0.0433988f
c5 3 0 0.00372f
c6 2 0 0.0185981f
r7 19 22 0.26
r8 17 29 1.40625
r9 17 28 1.40625
r10 17 22 10.8
r11 17 19 10.8
r12 16 19 0.26
r13 16 17 10.8
r14 14 16 0.14
r15 8 11 0.26
r16 6 26 1.40625
r17 6 25 1.40625
r18 6 11 10.8
r19 6 8 10.8
r20 5 8 0.26
r21 5 6 10.8
r22 3 5 0.14
r23 2 14 0.0458951
r24 1 3 0.0458951
r25 1 2 0.64
.ends

.subckt PM_THIRTY_TWO_BIT_ADDER%X2/X12/X16/10 1 2
r0 1 2 13.2
.ends

.subckt PM_THIRTY_TWO_BIT_ADDER%X2/X12/X16/11 1 2
r0 1 2 13.2
.ends

.subckt PM_THIRTY_TWO_BIT_ADDER%X2/X13/X14/9 2 25 26 28 29
c2 22 0 0.0433988f
c3 14 0 0.00372f
c4 11 0 0.0433988f
c5 3 0 0.00372f
c6 2 0 0.0185981f
r7 19 22 0.26
r8 17 29 1.40625
r9 17 28 1.40625
r10 17 22 10.8
r11 17 19 10.8
r12 16 19 0.26
r13 16 17 10.8
r14 14 16 0.14
r15 8 11 0.26
r16 6 26 1.40625
r17 6 25 1.40625
r18 6 11 10.8
r19 6 8 10.8
r20 5 8 0.26
r21 5 6 10.8
r22 3 5 0.14
r23 2 14 0.0458951
r24 1 3 0.0458951
r25 1 2 0.64
.ends

.subckt PM_THIRTY_TWO_BIT_ADDER%X2/X13/X14/10 1 2
r0 1 2 13.2
.ends

.subckt PM_THIRTY_TWO_BIT_ADDER%X2/X13/X14/11 1 2
r0 1 2 13.2
.ends

.subckt PM_THIRTY_TWO_BIT_ADDER%X2/X13/X15/9 2 11 14 22 25 26 28 29
c7 22 0 0.0433988f
c8 14 0 0.00372f
c9 11 0 0.0433988f
c10 3 0 0.00372f
c11 2 0 0.0185981f
r12 19 22 0.26
r13 17 29 1.40625
r14 17 28 1.40625
r15 17 22 10.8
r16 17 19 10.8
r17 16 19 0.26
r18 16 17 10.8
r19 14 16 0.14
r20 8 11 0.26
r21 6 26 1.40625
r22 6 25 1.40625
r23 6 11 10.8
r24 6 8 10.8
r25 5 8 0.26
r26 5 6 10.8
r27 3 5 0.14
r28 2 14 0.0458951
r29 1 3 0.0458951
r30 1 2 0.64
.ends

.subckt PM_THIRTY_TWO_BIT_ADDER%X2/X13/X15/10 1 2
r0 1 2 13.2
.ends

.subckt PM_THIRTY_TWO_BIT_ADDER%X2/X13/X15/11 1 2
r0 1 2 13.2
.ends

.subckt PM_THIRTY_TWO_BIT_ADDER%X2/X13/X16/9 2 25 26 28 29
c2 22 0 0.0433988f
c3 14 0 0.00372f
c4 11 0 0.0433988f
c5 3 0 0.00372f
c6 2 0 0.0185981f
r7 19 22 0.26
r8 17 29 1.40625
r9 17 28 1.40625
r10 17 22 10.8
r11 17 19 10.8
r12 16 19 0.26
r13 16 17 10.8
r14 14 16 0.14
r15 8 11 0.26
r16 6 26 1.40625
r17 6 25 1.40625
r18 6 11 10.8
r19 6 8 10.8
r20 5 8 0.26
r21 5 6 10.8
r22 3 5 0.14
r23 2 14 0.0458951
r24 1 3 0.0458951
r25 1 2 0.64
.ends

.subckt PM_THIRTY_TWO_BIT_ADDER%X2/X13/X16/10 1 2
r0 1 2 13.2
.ends

.subckt PM_THIRTY_TWO_BIT_ADDER%X2/X13/X16/11 1 2
r0 1 2 13.2
.ends

.subckt PM_THIRTY_TWO_BIT_ADDER%X2/X14/X14/9 2 25 26 28 29
c2 22 0 0.0433988f
c3 14 0 0.00372f
c4 11 0 0.0433988f
c5 3 0 0.00372f
c6 2 0 0.0185981f
r7 19 22 0.26
r8 17 29 1.40625
r9 17 28 1.40625
r10 17 22 10.8
r11 17 19 10.8
r12 16 19 0.26
r13 16 17 10.8
r14 14 16 0.14
r15 8 11 0.26
r16 6 26 1.40625
r17 6 25 1.40625
r18 6 11 10.8
r19 6 8 10.8
r20 5 8 0.26
r21 5 6 10.8
r22 3 5 0.14
r23 2 14 0.0458951
r24 1 3 0.0458951
r25 1 2 0.64
.ends

.subckt PM_THIRTY_TWO_BIT_ADDER%X2/X14/X14/10 1 2
r0 1 2 13.2
.ends

.subckt PM_THIRTY_TWO_BIT_ADDER%X2/X14/X14/11 1 2
r0 1 2 13.2
.ends

.subckt PM_THIRTY_TWO_BIT_ADDER%X2/X14/X15/9 2 11 14 22 25 26 28 29
c7 22 0 0.0433988f
c8 14 0 0.00372f
c9 11 0 0.0433988f
c10 3 0 0.00372f
c11 2 0 0.0185981f
r12 19 22 0.26
r13 17 29 1.40625
r14 17 28 1.40625
r15 17 22 10.8
r16 17 19 10.8
r17 16 19 0.26
r18 16 17 10.8
r19 14 16 0.14
r20 8 11 0.26
r21 6 26 1.40625
r22 6 25 1.40625
r23 6 11 10.8
r24 6 8 10.8
r25 5 8 0.26
r26 5 6 10.8
r27 3 5 0.14
r28 2 14 0.0458951
r29 1 3 0.0458951
r30 1 2 0.64
.ends

.subckt PM_THIRTY_TWO_BIT_ADDER%X2/X14/X15/10 1 2
r0 1 2 13.2
.ends

.subckt PM_THIRTY_TWO_BIT_ADDER%X2/X14/X15/11 1 2
r0 1 2 13.2
.ends

.subckt PM_THIRTY_TWO_BIT_ADDER%X2/X14/X16/9 2 25 26 28 29
c2 22 0 0.0433988f
c3 14 0 0.00372f
c4 11 0 0.0433988f
c5 3 0 0.00372f
c6 2 0 0.0185981f
r7 19 22 0.26
r8 17 29 1.40625
r9 17 28 1.40625
r10 17 22 10.8
r11 17 19 10.8
r12 16 19 0.26
r13 16 17 10.8
r14 14 16 0.14
r15 8 11 0.26
r16 6 26 1.40625
r17 6 25 1.40625
r18 6 11 10.8
r19 6 8 10.8
r20 5 8 0.26
r21 5 6 10.8
r22 3 5 0.14
r23 2 14 0.0458951
r24 1 3 0.0458951
r25 1 2 0.64
.ends

.subckt PM_THIRTY_TWO_BIT_ADDER%X2/X14/X16/10 1 2
r0 1 2 13.2
.ends

.subckt PM_THIRTY_TWO_BIT_ADDER%X2/X14/X16/11 1 2
r0 1 2 13.2
.ends

.subckt PM_THIRTY_TWO_BIT_ADDER%X3/X11/X14/9 2 25 26 28 29
c2 22 0 0.0433988f
c3 14 0 0.00372f
c4 11 0 0.0433988f
c5 3 0 0.00372f
c6 2 0 0.0185981f
r7 19 22 0.26
r8 17 29 1.40625
r9 17 28 1.40625
r10 17 22 10.8
r11 17 19 10.8
r12 16 19 0.26
r13 16 17 10.8
r14 14 16 0.14
r15 8 11 0.26
r16 6 26 1.40625
r17 6 25 1.40625
r18 6 11 10.8
r19 6 8 10.8
r20 5 8 0.26
r21 5 6 10.8
r22 3 5 0.14
r23 2 14 0.0458951
r24 1 3 0.0458951
r25 1 2 0.64
.ends

.subckt PM_THIRTY_TWO_BIT_ADDER%X3/X11/X14/10 1 2
r0 1 2 13.2
.ends

.subckt PM_THIRTY_TWO_BIT_ADDER%X3/X11/X14/11 1 2
r0 1 2 13.2
.ends

.subckt PM_THIRTY_TWO_BIT_ADDER%X3/X11/X15/9 2 11 14 22 25 26 28 29
c7 22 0 0.0433988f
c8 14 0 0.00372f
c9 11 0 0.0433988f
c10 3 0 0.00372f
c11 2 0 0.0185981f
r12 19 22 0.26
r13 17 29 1.40625
r14 17 28 1.40625
r15 17 22 10.8
r16 17 19 10.8
r17 16 19 0.26
r18 16 17 10.8
r19 14 16 0.14
r20 8 11 0.26
r21 6 26 1.40625
r22 6 25 1.40625
r23 6 11 10.8
r24 6 8 10.8
r25 5 8 0.26
r26 5 6 10.8
r27 3 5 0.14
r28 2 14 0.0458951
r29 1 3 0.0458951
r30 1 2 0.64
.ends

.subckt PM_THIRTY_TWO_BIT_ADDER%X3/X11/X15/10 1 2
r0 1 2 13.2
.ends

.subckt PM_THIRTY_TWO_BIT_ADDER%X3/X11/X15/11 1 2
r0 1 2 13.2
.ends

.subckt PM_THIRTY_TWO_BIT_ADDER%X3/X11/X16/9 2 25 26 28 29
c2 22 0 0.0433988f
c3 14 0 0.00372f
c4 11 0 0.0433988f
c5 3 0 0.00372f
c6 2 0 0.0185981f
r7 19 22 0.26
r8 17 29 1.40625
r9 17 28 1.40625
r10 17 22 10.8
r11 17 19 10.8
r12 16 19 0.26
r13 16 17 10.8
r14 14 16 0.14
r15 8 11 0.26
r16 6 26 1.40625
r17 6 25 1.40625
r18 6 11 10.8
r19 6 8 10.8
r20 5 8 0.26
r21 5 6 10.8
r22 3 5 0.14
r23 2 14 0.0458951
r24 1 3 0.0458951
r25 1 2 0.64
.ends

.subckt PM_THIRTY_TWO_BIT_ADDER%X3/X11/X16/10 1 2
r0 1 2 13.2
.ends

.subckt PM_THIRTY_TWO_BIT_ADDER%X3/X11/X16/11 1 2
r0 1 2 13.2
.ends

.subckt PM_THIRTY_TWO_BIT_ADDER%X3/X12/X14/9 2 25 26 28 29
c2 22 0 0.0433988f
c3 14 0 0.00372f
c4 11 0 0.0433988f
c5 3 0 0.00372f
c6 2 0 0.0185981f
r7 19 22 0.26
r8 17 29 1.40625
r9 17 28 1.40625
r10 17 22 10.8
r11 17 19 10.8
r12 16 19 0.26
r13 16 17 10.8
r14 14 16 0.14
r15 8 11 0.26
r16 6 26 1.40625
r17 6 25 1.40625
r18 6 11 10.8
r19 6 8 10.8
r20 5 8 0.26
r21 5 6 10.8
r22 3 5 0.14
r23 2 14 0.0458951
r24 1 3 0.0458951
r25 1 2 0.64
.ends

.subckt PM_THIRTY_TWO_BIT_ADDER%X3/X12/X14/10 1 2
r0 1 2 13.2
.ends

.subckt PM_THIRTY_TWO_BIT_ADDER%X3/X12/X14/11 1 2
r0 1 2 13.2
.ends

.subckt PM_THIRTY_TWO_BIT_ADDER%X3/X12/X15/9 2 11 14 22 25 26 28 29
c7 22 0 0.0433988f
c8 14 0 0.00372f
c9 11 0 0.0433988f
c10 3 0 0.00372f
c11 2 0 0.0185981f
r12 19 22 0.26
r13 17 29 1.40625
r14 17 28 1.40625
r15 17 22 10.8
r16 17 19 10.8
r17 16 19 0.26
r18 16 17 10.8
r19 14 16 0.14
r20 8 11 0.26
r21 6 26 1.40625
r22 6 25 1.40625
r23 6 11 10.8
r24 6 8 10.8
r25 5 8 0.26
r26 5 6 10.8
r27 3 5 0.14
r28 2 14 0.0458951
r29 1 3 0.0458951
r30 1 2 0.64
.ends

.subckt PM_THIRTY_TWO_BIT_ADDER%X3/X12/X15/10 1 2
r0 1 2 13.2
.ends

.subckt PM_THIRTY_TWO_BIT_ADDER%X3/X12/X15/11 1 2
r0 1 2 13.2
.ends

.subckt PM_THIRTY_TWO_BIT_ADDER%X3/X12/X16/9 2 25 26 28 29
c2 22 0 0.0433988f
c3 14 0 0.00372f
c4 11 0 0.0433988f
c5 3 0 0.00372f
c6 2 0 0.0185981f
r7 19 22 0.26
r8 17 29 1.40625
r9 17 28 1.40625
r10 17 22 10.8
r11 17 19 10.8
r12 16 19 0.26
r13 16 17 10.8
r14 14 16 0.14
r15 8 11 0.26
r16 6 26 1.40625
r17 6 25 1.40625
r18 6 11 10.8
r19 6 8 10.8
r20 5 8 0.26
r21 5 6 10.8
r22 3 5 0.14
r23 2 14 0.0458951
r24 1 3 0.0458951
r25 1 2 0.64
.ends

.subckt PM_THIRTY_TWO_BIT_ADDER%X3/X12/X16/10 1 2
r0 1 2 13.2
.ends

.subckt PM_THIRTY_TWO_BIT_ADDER%X3/X12/X16/11 1 2
r0 1 2 13.2
.ends

.subckt PM_THIRTY_TWO_BIT_ADDER%X3/X13/X14/9 2 25 26 28 29
c2 22 0 0.0433988f
c3 14 0 0.00372f
c4 11 0 0.0433988f
c5 3 0 0.00372f
c6 2 0 0.0185981f
r7 19 22 0.26
r8 17 29 1.40625
r9 17 28 1.40625
r10 17 22 10.8
r11 17 19 10.8
r12 16 19 0.26
r13 16 17 10.8
r14 14 16 0.14
r15 8 11 0.26
r16 6 26 1.40625
r17 6 25 1.40625
r18 6 11 10.8
r19 6 8 10.8
r20 5 8 0.26
r21 5 6 10.8
r22 3 5 0.14
r23 2 14 0.0458951
r24 1 3 0.0458951
r25 1 2 0.64
.ends

.subckt PM_THIRTY_TWO_BIT_ADDER%X3/X13/X14/10 1 2
r0 1 2 13.2
.ends

.subckt PM_THIRTY_TWO_BIT_ADDER%X3/X13/X14/11 1 2
r0 1 2 13.2
.ends

.subckt PM_THIRTY_TWO_BIT_ADDER%X3/X13/X15/9 2 11 14 22 25 26 28 29
c7 22 0 0.0433988f