* File: thirty_two_bit_adder.pex.netlist
* Created: Mon Dec 19 17:36:08 2022
* Program "Calibre xRC"
* Version "v2012.2_36.25"
* 
.include "thirty_two_bit_adder.pex.netlist.pex"
.subckt THIRTY_TWO_BIT_ADDER  VDD COUT31N C0N GND SUM30 SUM26 SUM22 SUM29 SUM25
+ SUM21 SUM28 SUM24 SUM20 SUM31 SUM27 SUM23 SUM14 SUM10 SUM18 SUM6 SUM13 SUM9
+ SUM17 SUM5 SUM12 SUM8 SUM16 SUM4 SUM15 SUM11 SUM19 SUM7 SUM2 SUM1 SUM0 SUM3
+ COUT31 C0 A30N B30 B30N A30 A26N B26 B26N A26 A22N B22 B22N A22 A29N B29 B29N
+ A29 A25N B25 B25N A25 A21N B21 B21N A21 A28N B28 B28N A28 A24N B24 B24N A24
+ A20N B20 B20N A20 A31N B31 B31N A31 A27N B27 B27N A27 A23N B23 B23N A23 A14N
+ B14 B14N A14 A10N B10 B10N A10 A18N B18 B18N A18 A6N B6 B6N A6 A13N B13 B13N
+ A13 A9N B9 B9N A9 A17N B17 B17N A17 A5N B5 B5N A5 A12N B12 B12N A12 A8N B8 B8N
+ A8 A16N B16 B16N A16 A4N B4 B4N A4 A15N B15 B15N A15 A11N B11 B11N A11 A19N
+ B19 B19N A19 A7N B7 B7N A7 A2N B2 B2N A2 A1N B1 B1N A1 A0N B0 B0N A0 A3N B3
+ B3N A3
* 
* A3	A3
* B3N	B3N
* B3	B3
* A3N	A3N
* A0	A0
* B0N	B0N
* B0	B0
* A0N	A0N
* A1	A1
* B1N	B1N
* B1	B1
* A1N	A1N
* A2	A2
* B2N	B2N
* B2	B2
* A2N	A2N
* A7	A7
* B7N	B7N
* B7	B7
* A7N	A7N
* A19	A19
* B19N	B19N
* B19	B19
* A19N	A19N
* A11	A11
* B11N	B11N
* B11	B11
* A11N	A11N
* A15	A15
* B15N	B15N
* B15	B15
* A15N	A15N
* A4	A4
* B4N	B4N
* B4	B4
* A4N	A4N
* A16	A16
* B16N	B16N
* B16	B16
* A16N	A16N
* A8	A8
* B8N	B8N
* B8	B8
* A8N	A8N
* A12	A12
* B12N	B12N
* B12	B12
* A12N	A12N
* A5	A5
* B5N	B5N
* B5	B5
* A5N	A5N
* A17	A17
* B17N	B17N
* B17	B17
* A17N	A17N
* A9	A9
* B9N	B9N
* B9	B9
* A9N	A9N
* A13	A13
* B13N	B13N
* B13	B13
* A13N	A13N
* A6	A6
* B6N	B6N
* B6	B6
* A6N	A6N
* A18	A18
* B18N	B18N
* B18	B18
* A18N	A18N
* A10	A10
* B10N	B10N
* B10	B10
* A10N	A10N
* A14	A14
* B14N	B14N
* B14	B14
* A14N	A14N
* A23	A23
* B23N	B23N
* B23	B23
* A23N	A23N
* A27	A27
* B27N	B27N
* B27	B27
* A27N	A27N
* A31	A31
* B31N	B31N
* B31	B31
* A31N	A31N
* A20	A20
* B20N	B20N
* B20	B20
* A20N	A20N
* A24	A24
* B24N	B24N
* B24	B24
* A24N	A24N
* A28	A28
* B28N	B28N
* B28	B28
* A28N	A28N
* A21	A21
* B21N	B21N
* B21	B21
* A21N	A21N
* A25	A25
* B25N	B25N
* B25	B25
* A25N	A25N
* A29	A29
* B29N	B29N
* B29	B29
* A29N	A29N
* A22	A22
* B22N	B22N
* B22	B22
* A22N	A22N
* A26	A26
* B26N	B26N
* B26	B26
* A26N	A26N
* A30	A30
* B30N	B30N
* B30	B30
* A30N	A30N
* C0	C0
* COUT31	COUT31
* SUM3	SUM3
* SUM0	SUM0
* SUM1	SUM1
* SUM2	SUM2
* SUM7	SUM7
* SUM19	SUM19
* SUM11	SUM11
* SUM15	SUM15
* SUM4	SUM4
* SUM16	SUM16
* SUM8	SUM8
* SUM12	SUM12
* SUM5	SUM5
* SUM17	SUM17
* SUM9	SUM9
* SUM13	SUM13
* SUM6	SUM6
* SUM18	SUM18
* SUM10	SUM10
* SUM14	SUM14
* SUM23	SUM23
* SUM27	SUM27
* SUM31	SUM31
* SUM20	SUM20
* SUM24	SUM24
* SUM28	SUM28
* SUM21	SUM21
* SUM25	SUM25
* SUM29	SUM29
* SUM22	SUM22
* SUM26	SUM26
* SUM30	SUM30
* GND	GND
* C0N	C0N
* COUT31N	COUT31N
* VDD	VDD
mX0/M0 N_GND_X0/M0_d N_X0/39_X0/M0_g N_X0/40_X0/M0_s N_GND_X0/X10/M0_b n
+ L=1.8e-07 W=5.4e-07 AD=4.374e-13 AS=4.374e-13
mX0/M1 N_X0/41_X0/M1_d N_X0/32_X0/M1_g N_GND_X0/M1_s N_GND_X0/X10/M0_b n
+ L=1.8e-07 W=2.16e-06 AD=2.3328e-12 AS=1.7496e-12
mX0/M2 N_X0/42_X0/M2_d N_X0/31_X0/M2_g N_X0/41_X0/M2_s N_GND_X0/X10/M0_b n
+ L=1.8e-07 W=2.16e-06 AD=2.3328e-12 AS=2.3328e-12
mX0/M3 N_X0/43_X0/M3_d N_X0/30_X0/M3_g N_X0/42_X0/M3_s N_GND_X0/X10/M0_b n
+ L=1.8e-07 W=2.16e-06 AD=2.3328e-12 AS=2.3328e-12
mX0/M4 N_X0/39_X0/M4_d N_X0/35_X0/M4_g N_X0/43_X0/M4_s N_GND_X0/X10/M0_b n
+ L=1.8e-07 W=2.16e-06 AD=1.7496e-12 AS=2.3328e-12
mX0/M5 N_VDD_X0/M5_d N_X0/39_X0/M5_g N_X0/40_X0/M5_s N_VDD_X0/M5_b p L=1.8e-07
+ W=1.44e-06 AD=1.1664e-12 AS=1.1664e-12
mX0/M6 N_X0/39_X0/M6_d N_X0/32_X0/M6_g N_VDD_X0/M6_s N_VDD_X0/M5_b p L=1.8e-07
+ W=1.44e-06 AD=1.5552e-12 AS=1.1664e-12
mX0/M7 N_VDD_X0/M7_d N_X0/31_X0/M7_g N_X0/39_X0/M7_s N_VDD_X0/M5_b p L=1.8e-07
+ W=1.44e-06 AD=1.1664e-12 AS=1.5552e-12
mX0/M8 N_X0/39_X0/M8_d N_X0/30_X0/M8_g N_VDD_X0/M8_s N_VDD_X0/M5_b p L=1.8e-07
+ W=1.44e-06 AD=1.5552e-12 AS=1.1664e-12
mX0/M9 N_VDD_X0/M9_d N_X0/35_X0/M9_g N_X0/39_X0/M9_s N_VDD_X0/M5_b p L=1.8e-07
+ W=1.44e-06 AD=1.1664e-12 AS=1.5552e-12
mX0/X10/M0 N_GND_X0/X10/M0_d N_COUT31N_X0/X10/M0_g N_COUT31_X0/X10/M0_s
+ N_GND_X0/X10/M0_b n L=1.8e-07 W=5.4e-07 AD=4.374e-13 AS=4.374e-13
mX0/X10/M1 N_X0/X10/10_X0/X10/M1_d N_45_X0/X10/M1_g N_COUT31N_X0/X10/M1_s
+ N_GND_X0/X10/M0_b n L=1.8e-07 W=5.4e-07 AD=5.832e-13 AS=4.374e-13
mX0/X10/M2 N_GND_X0/X10/M2_d N_X0/40_X0/X10/M2_g N_X0/X10/10_X0/X10/M2_s
+ N_GND_X0/X10/M0_b n L=1.8e-07 W=5.4e-07 AD=5.832e-13 AS=5.832e-13
mX0/X10/M3 N_X0/X10/11_X0/X10/M3_d N_X0/39_X0/X10/M3_g N_GND_X0/X10/M3_s
+ N_GND_X0/X10/M0_b n L=1.8e-07 W=5.4e-07 AD=5.832e-13 AS=5.832e-13
mX0/X10/M4 N_COUT31N_X0/X10/M4_d N_X0/34_X0/X10/M4_g N_X0/X10/11_X0/X10/M4_s
+ N_GND_X0/X10/M0_b n L=1.8e-07 W=5.4e-07 AD=4.374e-13 AS=5.832e-13
mX0/X10/M5 N_X0/X10/9_X0/X10/M5_d N_X0/39_X0/X10/M5_g N_VDD_X0/X10/M5_s
+ N_VDD_X0/X10/M5_b p L=1.8e-07 W=2.88e-06 AD=3.1104e-12 AS=2.3328e-12
mX0/X10/M6 N_COUT31N_X0/X10/M6_d N_45_X0/X10/M6_g N_X0/X10/9_X0/X10/M6_s
+ N_VDD_X0/X10/M5_b p L=1.8e-07 W=2.88e-06 AD=3.1104e-12 AS=3.1104e-12
mX0/X10/M7 N_X0/X10/9_X0/X10/M7_d N_X0/40_X0/X10/M7_g N_COUT31N_X0/X10/M7_s
+ N_VDD_X0/X10/M5_b p L=1.8e-07 W=2.88e-06 AD=3.1104e-12 AS=3.1104e-12
mX0/X10/M8 N_VDD_X0/X10/M8_d N_X0/34_X0/X10/M8_g N_X0/X10/9_X0/X10/M8_s
+ N_VDD_X0/X10/M5_b p L=1.8e-07 W=2.88e-06 AD=2.3328e-12 AS=3.1104e-12
mX0/X10/M9 N_VDD_X0/X10/M9_d N_COUT31N_X0/X10/M9_g N_COUT31_X0/X10/M9_s
+ N_VDD_X0/X10/M5_b p L=1.8e-07 W=1.44e-06 AD=1.1664e-12 AS=1.1664e-12
mX0/X11/M0 N_GND_X0/X11/M0_d N_X0/X11/14_X0/X11/M0_g N_X0/X11/16_X0/X11/M0_s
+ N_GND_X0/X10/M0_b n L=1.8e-07 W=5.4e-07 AD=4.374e-13 AS=4.374e-13
mX0/X11/M1 N_GND_X0/X11/M1_d N_X0/X11/13_X0/X11/M1_g N_X0/X11/14_X0/X11/M1_s
+ N_GND_X0/X10/M0_b n L=1.8e-07 W=5.4e-07 AD=5.832e-13 AS=4.374e-13
mX0/X11/M2 N_X0/X11/20_X0/X11/M2_d N_B30_X0/X11/M2_g N_GND_X0/X11/M2_s
+ N_GND_X0/X10/M0_b n L=1.8e-07 W=5.4e-07 AD=5.832e-13 AS=5.832e-13
mX0/X11/M3 N_X0/X11/14_X0/X11/M3_d N_A30_X0/X11/M3_g N_X0/X11/20_X0/X11/M3_s
+ N_GND_X0/X10/M0_b n L=1.8e-07 W=5.4e-07 AD=4.374e-13 AS=5.832e-13
mX0/X11/M4 N_GND_X0/X11/M4_d N_X0/X11/13_X0/X11/M4_g N_X0/X11/17_X0/X11/M4_s
+ N_GND_X0/X10/M0_b n L=1.8e-07 W=5.4e-07 AD=4.374e-13 AS=4.374e-13
mX0/X11/M5 N_X0/X11/13_X0/X11/M5_d N_B30_X0/X11/M5_g N_GND_X0/X11/M5_s
+ N_GND_X0/X10/M0_b n L=1.8e-07 W=5.4e-07 AD=5.832e-13 AS=4.374e-13
mX0/X11/M6 N_GND_X0/X11/M6_d N_A30_X0/X11/M6_g N_X0/X11/13_X0/X11/M6_s
+ N_GND_X0/X10/M0_b n L=1.8e-07 W=5.4e-07 AD=4.374e-13 AS=5.832e-13
mX0/X11/M7 N_X0/X11/15_X0/X11/M7_d N_X0/X11/13_X0/X11/M7_g
+ N_X0/X11/14_X0/X11/M7_s N_VDD_X0/X11/M7_b p L=1.8e-07 W=2.88e-06 AD=3.1104e-12
+ AS=2.3328e-12
mX0/X11/M8 N_VDD_X0/X11/M8_d N_B30_X0/X11/M8_g N_X0/X11/15_X0/X11/M8_s
+ N_VDD_X0/X11/M7_b p L=1.8e-07 W=2.88e-06 AD=3.1104e-12 AS=3.1104e-12
mX0/X11/M9 N_X0/X11/15_X0/X11/M9_d N_A30_X0/X11/M9_g N_VDD_X0/X11/M9_s
+ N_VDD_X0/X11/M7_b p L=1.8e-07 W=2.88e-06 AD=2.3328e-12 AS=3.1104e-12
mX0/X11/M10 N_VDD_X0/X11/M10_d N_X0/X11/14_X0/X11/M10_g N_X0/X11/16_X0/X11/M10_s
+ N_VDD_X0/X11/M7_b p L=1.8e-07 W=1.44e-06 AD=1.1664e-12 AS=1.1664e-12
mX0/X11/M11 N_X0/X11/21_X0/X11/M11_d N_B30_X0/X11/M11_g N_VDD_X0/X11/M11_s
+ N_VDD_X0/X11/M11_b p L=1.8e-07 W=2.88e-06 AD=3.1104e-12 AS=2.3328e-12
mX0/X11/M12 N_X0/X11/13_X0/X11/M12_d N_A30_X0/X11/M12_g N_X0/X11/21_X0/X11/M12_s
+ N_VDD_X0/X11/M11_b p L=1.8e-07 W=2.88e-06 AD=2.3328e-12 AS=3.1104e-12
mX0/X11/M13 N_VDD_X0/X11/M13_d N_X0/X11/13_X0/X11/M13_g N_X0/X11/17_X0/X11/M13_s
+ N_VDD_X0/X11/M11_b p L=1.8e-07 W=1.44e-06 AD=1.1664e-12 AS=1.1664e-12
mX0/X11/X14/M0 N_GND_X0/X11/X14/M0_d N_X0/X11/18_X0/X11/X14/M0_g
+ N_SUM30_X0/X11/X14/M0_s N_GND_X0/X10/M0_b n L=1.8e-07 W=5.4e-07 AD=4.374e-13
+ AS=4.374e-13
mX0/X11/X14/M1 N_X0/X11/X14/10_X0/X11/X14/M1_d N_X0/30_X0/X11/X14/M1_g
+ N_X0/X11/18_X0/X11/X14/M1_s N_GND_X0/X10/M0_b n L=1.8e-07 W=5.4e-07
+ AD=5.832e-13 AS=4.374e-13
mX0/X11/X14/M2 N_GND_X0/X11/X14/M2_d N_X0/27_X0/X11/X14/M2_g
+ N_X0/X11/X14/10_X0/X11/X14/M2_s N_GND_X0/X10/M0_b n L=1.8e-07 W=5.4e-07
+ AD=5.832e-13 AS=5.832e-13
mX0/X11/X14/M3 N_X0/X11/X14/11_X0/X11/X14/M3_d N_X0/X11/16_X0/X11/X14/M3_g
+ N_GND_X0/X11/X14/M3_s N_GND_X0/X10/M0_b n L=1.8e-07 W=5.4e-07 AD=5.832e-13
+ AS=5.832e-13
mX0/X11/X14/M4 N_X0/X11/18_X0/X11/X14/M4_d N_X0/36_X0/X11/X14/M4_g
+ N_X0/X11/X14/11_X0/X11/X14/M4_s N_GND_X0/X10/M0_b n L=1.8e-07 W=5.4e-07
+ AD=4.374e-13 AS=5.832e-13
mX0/X11/X14/M5 N_X0/X11/X14/9_X0/X11/X14/M5_d N_X0/X11/16_X0/X11/X14/M5_g
+ N_VDD_X0/X11/X14/M5_s N_VDD_X0/X11/X14/M5_b p L=1.8e-07 W=2.88e-06
+ AD=3.1104e-12 AS=2.3328e-12
mX0/X11/X14/M6 N_X0/X11/18_X0/X11/X14/M6_d N_X0/30_X0/X11/X14/M6_g
+ N_X0/X11/X14/9_X0/X11/X14/M6_s N_VDD_X0/X11/X14/M5_b p L=1.8e-07 W=2.88e-06
+ AD=3.1104e-12 AS=3.1104e-12
mX0/X11/X14/M7 N_X0/X11/X14/9_X0/X11/X14/M7_d N_X0/27_X0/X11/X14/M7_g
+ N_X0/X11/18_X0/X11/X14/M7_s N_VDD_X0/X11/X14/M5_b p L=1.8e-07 W=2.88e-06
+ AD=3.1104e-12 AS=3.1104e-12
mX0/X11/X14/M8 N_VDD_X0/X11/X14/M8_d N_X0/36_X0/X11/X14/M8_g
+ N_X0/X11/X14/9_X0/X11/X14/M8_s N_VDD_X0/X11/X14/M5_b p L=1.8e-07 W=2.88e-06
+ AD=2.3328e-12 AS=3.1104e-12
mX0/X11/X14/M9 N_VDD_X0/X11/X14/M9_d N_X0/X11/18_X0/X11/X14/M9_g
+ N_SUM30_X0/X11/X14/M9_s N_VDD_X0/X11/X14/M5_b p L=1.8e-07 W=1.44e-06
+ AD=1.1664e-12 AS=1.1664e-12
mX0/X11/X15/M0 N_GND_X0/X11/X15/M0_d N_X0/29_X0/X11/X15/M0_g
+ N_X0/38_X0/X11/X15/M0_s N_GND_X0/X10/M0_b n L=1.8e-07 W=5.4e-07 AD=4.374e-13
+ AS=4.374e-13
mX0/X11/X15/M1 N_X0/X11/X15/10_X0/X11/X15/M1_d N_X0/X11/17_X0/X11/X15/M1_g
+ N_X0/29_X0/X11/X15/M1_s N_GND_X0/X10/M0_b n L=1.8e-07 W=5.4e-07 AD=5.832e-13
+ AS=4.374e-13
mX0/X11/X15/M2 N_GND_X0/X11/X15/M2_d N_X0/36_X0/X11/X15/M2_g
+ N_X0/X11/X15/10_X0/X11/X15/M2_s N_GND_X0/X10/M0_b n L=1.8e-07 W=5.4e-07
+ AD=5.832e-13 AS=5.832e-13
mX0/X11/X15/M3 N_X0/X11/X15/11_X0/X11/X15/M3_d N_B30_X0/X11/X15/M3_g
+ N_GND_X0/X11/X15/M3_s N_GND_X0/X10/M0_b n L=1.8e-07 W=5.4e-07 AD=5.832e-13
+ AS=5.832e-13
mX0/X11/X15/M4 N_X0/29_X0/X11/X15/M4_d N_A30_X0/X11/X15/M4_g
+ N_X0/X11/X15/11_X0/X11/X15/M4_s N_GND_X0/X10/M0_b n L=1.8e-07 W=5.4e-07
+ AD=4.374e-13 AS=5.832e-13
mX0/X11/X15/M5 N_X0/X11/X15/9_X0/X11/X15/M5_d N_B30_X0/X11/X15/M5_g
+ N_VDD_X0/X11/X15/M5_s N_VDD_X0/X11/X15/M5_b p L=1.8e-07 W=2.88e-06
+ AD=3.1104e-12 AS=2.3328e-12
mX0/X11/X15/M6 N_X0/29_X0/X11/X15/M6_d N_X0/X11/17_X0/X11/X15/M6_g
+ N_X0/X11/X15/9_X0/X11/X15/M6_s N_VDD_X0/X11/X15/M5_b p L=1.8e-07 W=2.88e-06
+ AD=3.1104e-12 AS=3.1104e-12
mX0/X11/X15/M7 N_X0/X11/X15/9_X0/X11/X15/M7_d N_X0/36_X0/X11/X15/M7_g
+ N_X0/29_X0/X11/X15/M7_s N_VDD_X0/X11/X15/M5_b p L=1.8e-07 W=2.88e-06
+ AD=3.1104e-12 AS=3.1104e-12
mX0/X11/X15/M8 N_VDD_X0/X11/X15/M8_d N_A30_X0/X11/X15/M8_g
+ N_X0/X11/X15/9_X0/X11/X15/M8_s N_VDD_X0/X11/X15/M5_b p L=1.8e-07 W=2.88e-06
+ AD=2.3328e-12 AS=3.1104e-12
mX0/X11/X15/M9 N_VDD_X0/X11/X15/M9_d N_X0/29_X0/X11/X15/M9_g
+ N_X0/38_X0/X11/X15/M9_s N_VDD_X0/X11/X15/M5_b p L=1.8e-07 W=1.44e-06
+ AD=1.1664e-12 AS=1.1664e-12
mX0/X11/X16/M0 N_GND_X0/X11/X16/M0_d N_X0/X11/19_X0/X11/X16/M0_g
+ N_X0/30_X0/X11/X16/M0_s N_GND_X0/X10/M0_b n L=1.8e-07 W=5.4e-07 AD=4.374e-13
+ AS=4.374e-13
mX0/X11/X16/M1 N_X0/X11/X16/10_X0/X11/X16/M1_d N_A30N_X0/X11/X16/M1_g
+ N_X0/X11/19_X0/X11/X16/M1_s N_GND_X0/X10/M0_b n L=1.8e-07 W=5.4e-07
+ AD=5.832e-13 AS=4.374e-13
mX0/X11/X16/M2 N_GND_X0/X11/X16/M2_d N_B30_X0/X11/X16/M2_g
+ N_X0/X11/X16/10_X0/X11/X16/M2_s N_GND_X0/X10/M0_b n L=1.8e-07 W=5.4e-07
+ AD=5.832e-13 AS=5.832e-13
mX0/X11/X16/M3 N_X0/X11/X16/11_X0/X11/X16/M3_d N_B30N_X0/X11/X16/M3_g
+ N_GND_X0/X11/X16/M3_s N_GND_X0/X10/M0_b n L=1.8e-07 W=5.4e-07 AD=5.832e-13
+ AS=5.832e-13
mX0/X11/X16/M4 N_X0/X11/19_X0/X11/X16/M4_d N_A30_X0/X11/X16/M4_g
+ N_X0/X11/X16/11_X0/X11/X16/M4_s N_GND_X0/X10/M0_b n L=1.8e-07 W=5.4e-07
+ AD=4.374e-13 AS=5.832e-13
mX0/X11/X16/M5 N_X0/X11/X16/9_X0/X11/X16/M5_d N_B30N_X0/X11/X16/M5_g
+ N_VDD_X0/X11/X16/M5_s N_VDD_X0/X11/X16/M5_b p L=1.8e-07 W=2.88e-06
+ AD=3.1104e-12 AS=2.3328e-12
mX0/X11/X16/M6 N_X0/X11/19_X0/X11/X16/M6_d N_A30N_X0/X11/X16/M6_g
+ N_X0/X11/X16/9_X0/X11/X16/M6_s N_VDD_X0/X11/X16/M5_b p L=1.8e-07 W=2.88e-06
+ AD=3.1104e-12 AS=3.1104e-12
mX0/X11/X16/M7 N_X0/X11/X16/9_X0/X11/X16/M7_d N_B30_X0/X11/X16/M7_g
+ N_X0/X11/19_X0/X11/X16/M7_s N_VDD_X0/X11/X16/M5_b p L=1.8e-07 W=2.88e-06
+ AD=3.1104e-12 AS=3.1104e-12
mX0/X11/X16/M8 N_VDD_X0/X11/X16/M8_d N_A30_X0/X11/X16/M8_g
+ N_X0/X11/X16/9_X0/X11/X16/M8_s N_VDD_X0/X11/X16/M5_b p L=1.8e-07 W=2.88e-06
+ AD=2.3328e-12 AS=3.1104e-12
mX0/X11/X16/M9 N_VDD_X0/X11/X16/M9_d N_X0/X11/19_X0/X11/X16/M9_g
+ N_X0/30_X0/X11/X16/M9_s N_VDD_X0/X11/X16/M5_b p L=1.8e-07 W=1.44e-06
+ AD=1.1664e-12 AS=1.1664e-12
mX0/X12/M0 N_GND_X0/X12/M0_d N_X0/X12/14_X0/X12/M0_g N_X0/X12/16_X0/X12/M0_s
+ N_GND_X0/X10/M0_b n L=1.8e-07 W=5.4e-07 AD=4.374e-13 AS=4.374e-13
mX0/X12/M1 N_GND_X0/X12/M1_d N_X0/X12/13_X0/X12/M1_g N_X0/X12/14_X0/X12/M1_s
+ N_GND_X0/X10/M0_b n L=1.8e-07 W=5.4e-07 AD=5.832e-13 AS=4.374e-13
mX0/X12/M2 N_X0/X12/20_X0/X12/M2_d N_B29_X0/X12/M2_g N_GND_X0/X12/M2_s
+ N_GND_X0/X10/M0_b n L=1.8e-07 W=5.4e-07 AD=5.832e-13 AS=5.832e-13
mX0/X12/M3 N_X0/X12/14_X0/X12/M3_d N_A29_X0/X12/M3_g N_X0/X12/20_X0/X12/M3_s
+ N_GND_X0/X10/M0_b n L=1.8e-07 W=5.4e-07 AD=4.374e-13 AS=5.832e-13
mX0/X12/M4 N_GND_X0/X12/M4_d N_X0/X12/13_X0/X12/M4_g N_X0/X12/17_X0/X12/M4_s
+ N_GND_X0/X10/M0_b n L=1.8e-07 W=5.4e-07 AD=4.374e-13 AS=4.374e-13
mX0/X12/M5 N_X0/X12/13_X0/X12/M5_d N_B29_X0/X12/M5_g N_GND_X0/X12/M5_s
+ N_GND_X0/X10/M0_b n L=1.8e-07 W=5.4e-07 AD=5.832e-13 AS=4.374e-13
mX0/X12/M6 N_GND_X0/X12/M6_d N_A29_X0/X12/M6_g N_X0/X12/13_X0/X12/M6_s
+ N_GND_X0/X10/M0_b n L=1.8e-07 W=5.4e-07 AD=4.374e-13 AS=5.832e-13
mX0/X12/M7 N_X0/X12/15_X0/X12/M7_d N_X0/X12/13_X0/X12/M7_g
+ N_X0/X12/14_X0/X12/M7_s N_VDD_X0/X12/M7_b p L=1.8e-07 W=2.88e-06 AD=3.1104e-12
+ AS=2.3328e-12
mX0/X12/M8 N_VDD_X0/X12/M8_d N_B29_X0/X12/M8_g N_X0/X12/15_X0/X12/M8_s
+ N_VDD_X0/X12/M7_b p L=1.8e-07 W=2.88e-06 AD=3.1104e-12 AS=3.1104e-12
mX0/X12/M9 N_X0/X12/15_X0/X12/M9_d N_A29_X0/X12/M9_g N_VDD_X0/X12/M9_s
+ N_VDD_X0/X12/M7_b p L=1.8e-07 W=2.88e-06 AD=2.3328e-12 AS=3.1104e-12
mX0/X12/M10 N_VDD_X0/X12/M10_d N_X0/X12/14_X0/X12/M10_g N_X0/X12/16_X0/X12/M10_s
+ N_VDD_X0/X12/M7_b p L=1.8e-07 W=1.44e-06 AD=1.1664e-12 AS=1.1664e-12
mX0/X12/M11 N_X0/X12/21_X0/X12/M11_d N_B29_X0/X12/M11_g N_VDD_X0/X12/M11_s
+ N_VDD_X0/X12/M11_b p L=1.8e-07 W=2.88e-06 AD=3.1104e-12 AS=2.3328e-12
mX0/X12/M12 N_X0/X12/13_X0/X12/M12_d N_A29_X0/X12/M12_g N_X0/X12/21_X0/X12/M12_s
+ N_VDD_X0/X12/M11_b p L=1.8e-07 W=2.88e-06 AD=2.3328e-12 AS=3.1104e-12
mX0/X12/M13 N_VDD_X0/X12/M13_d N_X0/X12/13_X0/X12/M13_g N_X0/X12/17_X0/X12/M13_s
+ N_VDD_X0/X12/M11_b p L=1.8e-07 W=1.44e-06 AD=1.1664e-12 AS=1.1664e-12
mX0/X12/X14/M0 N_GND_X0/X12/X14/M0_d N_X0/X12/18_X0/X12/X14/M0_g
+ N_SUM29_X0/X12/X14/M0_s N_GND_X0/X10/M0_b n L=1.8e-07 W=5.4e-07 AD=4.374e-13
+ AS=4.374e-13
mX0/X12/X14/M1 N_X0/X12/X14/10_X0/X12/X14/M1_d N_X0/31_X0/X12/X14/M1_g
+ N_X0/X12/18_X0/X12/X14/M1_s N_GND_X0/X10/M0_b n L=1.8e-07 W=5.4e-07
+ AD=5.832e-13 AS=4.374e-13
mX0/X12/X14/M2 N_GND_X0/X12/X14/M2_d N_X0/28_X0/X12/X14/M2_g
+ N_X0/X12/X14/10_X0/X12/X14/M2_s N_GND_X0/X10/M0_b n L=1.8e-07 W=5.4e-07
+ AD=5.832e-13 AS=5.832e-13
mX0/X12/X14/M3 N_X0/X12/X14/11_X0/X12/X14/M3_d N_X0/X12/16_X0/X12/X14/M3_g
+ N_GND_X0/X12/X14/M3_s N_GND_X0/X10/M0_b n L=1.8e-07 W=5.4e-07 AD=5.832e-13
+ AS=5.832e-13
mX0/X12/X14/M4 N_X0/X12/18_X0/X12/X14/M4_d N_X0/37_X0/X12/X14/M4_g
+ N_X0/X12/X14/11_X0/X12/X14/M4_s N_GND_X0/X10/M0_b n L=1.8e-07 W=5.4e-07
+ AD=4.374e-13 AS=5.832e-13
mX0/X12/X14/M5 N_X0/X12/X14/9_X0/X12/X14/M5_d N_X0/X12/16_X0/X12/X14/M5_g
+ N_VDD_X0/X12/X14/M5_s N_VDD_X0/X12/X14/M5_b p L=1.8e-07 W=2.88e-06
+ AD=3.1104e-12 AS=2.3328e-12
mX0/X12/X14/M6 N_X0/X12/18_X0/X12/X14/M6_d N_X0/31_X0/X12/X14/M6_g
+ N_X0/X12/X14/9_X0/X12/X14/M6_s N_VDD_X0/X12/X14/M5_b p L=1.8e-07 W=2.88e-06
+ AD=3.1104e-12 AS=3.1104e-12
mX0/X12/X14/M7 N_X0/X12/X14/9_X0/X12/X14/M7_d N_X0/28_X0/X12/X14/M7_g
+ N_X0/X12/18_X0/X12/X14/M7_s N_VDD_X0/X12/X14/M5_b p L=1.8e-07 W=2.88e-06
+ AD=3.1104e-12 AS=3.1104e-12
mX0/X12/X14/M8 N_VDD_X0/X12/X14/M8_d N_X0/37_X0/X12/X14/M8_g
+ N_X0/X12/X14/9_X0/X12/X14/M8_s N_VDD_X0/X12/X14/M5_b p L=1.8e-07 W=2.88e-06
+ AD=2.3328e-12 AS=3.1104e-12
mX0/X12/X14/M9 N_VDD_X0/X12/X14/M9_d N_X0/X12/18_X0/X12/X14/M9_g
+ N_SUM29_X0/X12/X14/M9_s N_VDD_X0/X12/X14/M5_b p L=1.8e-07 W=1.44e-06
+ AD=1.1664e-12 AS=1.1664e-12
mX0/X12/X15/M0 N_GND_X0/X12/X15/M0_d N_X0/27_X0/X12/X15/M0_g
+ N_X0/36_X0/X12/X15/M0_s N_GND_X0/X10/M0_b n L=1.8e-07 W=5.4e-07 AD=4.374e-13
+ AS=4.374e-13
mX0/X12/X15/M1 N_X0/X12/X15/10_X0/X12/X15/M1_d N_X0/X12/17_X0/X12/X15/M1_g
+ N_X0/27_X0/X12/X15/M1_s N_GND_X0/X10/M0_b n L=1.8e-07 W=5.4e-07 AD=5.832e-13
+ AS=4.374e-13
mX0/X12/X15/M2 N_GND_X0/X12/X15/M2_d N_X0/37_X0/X12/X15/M2_g
+ N_X0/X12/X15/10_X0/X12/X15/M2_s N_GND_X0/X10/M0_b n L=1.8e-07 W=5.4e-07
+ AD=5.832e-13 AS=5.832e-13
mX0/X12/X15/M3 N_X0/X12/X15/11_X0/X12/X15/M3_d N_B29_X0/X12/X15/M3_g
+ N_GND_X0/X12/X15/M3_s N_GND_X0/X10/M0_b n L=1.8e-07 W=5.4e-07 AD=5.832e-13
+ AS=5.832e-13
mX0/X12/X15/M4 N_X0/27_X0/X12/X15/M4_d N_A29_X0/X12/X15/M4_g
+ N_X0/X12/X15/11_X0/X12/X15/M4_s N_GND_X0/X10/M0_b n L=1.8e-07 W=5.4e-07
+ AD=4.374e-13 AS=5.832e-13
mX0/X12/X15/M5 N_X0/X12/X15/9_X0/X12/X15/M5_d N_B29_X0/X12/X15/M5_g
+ N_VDD_X0/X12/X15/M5_s N_VDD_X0/X12/X15/M5_b p L=1.8e-07 W=2.88e-06
+ AD=3.1104e-12 AS=2.3328e-12
mX0/X12/X15/M6 N_X0/27_X0/X12/X15/M6_d N_X0/X12/17_X0/X12/X15/M6_g
+ N_X0/X12/X15/9_X0/X12/X15/M6_s N_VDD_X0/X12/X15/M5_b p L=1.8e-07 W=2.88e-06
+ AD=3.1104e-12 AS=3.1104e-12
mX0/X12/X15/M7 N_X0/X12/X15/9_X0/X12/X15/M7_d N_X0/37_X0/X12/X15/M7_g
+ N_X0/27_X0/X12/X15/M7_s N_VDD_X0/X12/X15/M5_b p L=1.8e-07 W=2.88e-06
+ AD=3.1104e-12 AS=3.1104e-12
mX0/X12/X15/M8 N_VDD_X0/X12/X15/M8_d N_A29_X0/X12/X15/M8_g
+ N_X0/X12/X15/9_X0/X12/X15/M8_s N_VDD_X0/X12/X15/M5_b p L=1.8e-07 W=2.88e-06
+ AD=2.3328e-12 AS=3.1104e-12
mX0/X12/X15/M9 N_VDD_X0/X12/X15/M9_d N_X0/27_X0/X12/X15/M9_g
+ N_X0/36_X0/X12/X15/M9_s N_VDD_X0/X12/X15/M5_b p L=1.8e-07 W=1.44e-06
+ AD=1.1664e-12 AS=1.1664e-12
mX0/X12/X16/M0 N_GND_X0/X12/X16/M0_d N_X0/X12/19_X0/X12/X16/M0_g
+ N_X0/31_X0/X12/X16/M0_s N_GND_X0/X10/M0_b n L=1.8e-07 W=5.4e-07 AD=4.374e-13
+ AS=4.374e-13
mX0/X12/X16/M1 N_X0/X12/X16/10_X0/X12/X16/M1_d N_A29N_X0/X12/X16/M1_g
+ N_X0/X12/19_X0/X12/X16/M1_s N_GND_X0/X10/M0_b n L=1.8e-07 W=5.4e-07
+ AD=5.832e-13 AS=4.374e-13
mX0/X12/X16/M2 N_GND_X0/X12/X16/M2_d N_B29_X0/X12/X16/M2_g
+ N_X0/X12/X16/10_X0/X12/X16/M2_s N_GND_X0/X10/M0_b n L=1.8e-07 W=5.4e-07
+ AD=5.832e-13 AS=5.832e-13
mX0/X12/X16/M3 N_X0/X12/X16/11_X0/X12/X16/M3_d N_B29N_X0/X12/X16/M3_g
+ N_GND_X0/X12/X16/M3_s N_GND_X0/X10/M0_b n L=1.8e-07 W=5.4e-07 AD=5.832e-13
+ AS=5.832e-13
mX0/X12/X16/M4 N_X0/X12/19_X0/X12/X16/M4_d N_A29_X0/X12/X16/M4_g
+ N_X0/X12/X16/11_X0/X12/X16/M4_s N_GND_X0/X10/M0_b n L=1.8e-07 W=5.4e-07
+ AD=4.374e-13 AS=5.832e-13
mX0/X12/X16/M5 N_X0/X12/X16/9_X0/X12/X16/M5_d N_B29N_X0/X12/X16/M5_g
+ N_VDD_X0/X12/X16/M5_s N_VDD_X0/X12/X16/M5_b p L=1.8e-07 W=2.88e-06
+ AD=3.1104e-12 AS=2.3328e-12
mX0/X12/X16/M6 N_X0/X12/19_X0/X12/X16/M6_d N_A29N_X0/X12/X16/M6_g
+ N_X0/X12/X16/9_X0/X12/X16/M6_s N_VDD_X0/X12/X16/M5_b p L=1.8e-07 W=2.88e-06
+ AD=3.1104e-12 AS=3.1104e-12
mX0/X12/X16/M7 N_X0/X12/X16/9_X0/X12/X16/M7_d N_B29_X0/X12/X16/M7_g
+ N_X0/X12/19_X0/X12/X16/M7_s N_VDD_X0/X12/X16/M5_b p L=1.8e-07 W=2.88e-06
+ AD=3.1104e-12 AS=3.1104e-12
mX0/X12/X16/M8 N_VDD_X0/X12/X16/M8_d N_A29_X0/X12/X16/M8_g
+ N_X0/X12/X16/9_X0/X12/X16/M8_s N_VDD_X0/X12/X16/M5_b p L=1.8e-07 W=2.88e-06
+ AD=2.3328e-12 AS=3.1104e-12
mX0/X12/X16/M9 N_VDD_X0/X12/X16/M9_d N_X0/X12/19_X0/X12/X16/M9_g
+ N_X0/31_X0/X12/X16/M9_s N_VDD_X0/X12/X16/M5_b p L=1.8e-07 W=1.44e-06
+ AD=1.1664e-12 AS=1.1664e-12
mX0/X13/M0 N_GND_X0/X13/M0_d N_X0/X13/14_X0/X13/M0_g N_X0/X13/16_X0/X13/M0_s
+ N_GND_X0/X10/M0_b n L=1.8e-07 W=5.4e-07 AD=4.374e-13 AS=4.374e-13
mX0/X13/M1 N_GND_X0/X13/M1_d N_X0/X13/13_X0/X13/M1_g N_X0/X13/14_X0/X13/M1_s
+ N_GND_X0/X10/M0_b n L=1.8e-07 W=5.4e-07 AD=5.832e-13 AS=4.374e-13
mX0/X13/M2 N_X0/X13/20_X0/X13/M2_d N_B28_X0/X13/M2_g N_GND_X0/X13/M2_s
+ N_GND_X0/X10/M0_b n L=1.8e-07 W=5.4e-07 AD=5.832e-13 AS=5.832e-13
mX0/X13/M3 N_X0/X13/14_X0/X13/M3_d N_A28_X0/X13/M3_g N_X0/X13/20_X0/X13/M3_s
+ N_GND_X0/X10/M0_b n L=1.8e-07 W=5.4e-07 AD=4.374e-13 AS=5.832e-13
mX0/X13/M4 N_GND_X0/X13/M4_d N_X0/X13/13_X0/X13/M4_g N_X0/X13/17_X0/X13/M4_s
+ N_GND_X0/X10/M0_b n L=1.8e-07 W=5.4e-07 AD=4.374e-13 AS=4.374e-13
mX0/X13/M5 N_X0/X13/13_X0/X13/M5_d N_B28_X0/X13/M5_g N_GND_X0/X13/M5_s
+ N_GND_X0/X10/M0_b n L=1.8e-07 W=5.4e-07 AD=5.832e-13 AS=4.374e-13
mX0/X13/M6 N_GND_X0/X13/M6_d N_A28_X0/X13/M6_g N_X0/X13/13_X0/X13/M6_s
+ N_GND_X0/X10/M0_b n L=1.8e-07 W=5.4e-07 AD=4.374e-13 AS=5.832e-13
mX0/X13/M7 N_X0/X13/15_X0/X13/M7_d N_X0/X13/13_X0/X13/M7_g
+ N_X0/X13/14_X0/X13/M7_s N_VDD_X0/X13/M7_b p L=1.8e-07 W=2.88e-06 AD=3.1104e-12
+ AS=2.3328e-12
mX0/X13/M8 N_VDD_X0/X13/M8_d N_B28_X0/X13/M8_g N_X0/X13/15_X0/X13/M8_s
+ N_VDD_X0/X13/M7_b p L=1.8e-07 W=2.88e-06 AD=3.1104e-12 AS=3.1104e-12
mX0/X13/M9 N_X0/X13/15_X0/X13/M9_d N_A28_X0/X13/M9_g N_VDD_X0/X13/M9_s
+ N_VDD_X0/X13/M7_b p L=1.8e-07 W=2.88e-06 AD=2.3328e-12 AS=3.1104e-12
mX0/X13/M10 N_VDD_X0/X13/M10_d N_X0/X13/14_X0/X13/M10_g N_X0/X13/16_X0/X13/M10_s
+ N_VDD_X0/X13/M7_b p L=1.8e-07 W=1.44e-06 AD=1.1664e-12 AS=1.1664e-12
mX0/X13/M11 N_X0/X13/21_X0/X13/M11_d N_B28_X0/X13/M11_g N_VDD_X0/X13/M11_s
+ N_VDD_X0/X13/M11_b p L=1.8e-07 W=2.88e-06 AD=3.1104e-12 AS=2.3328e-12
mX0/X13/M12 N_X0/X13/13_X0/X13/M12_d N_A28_X0/X13/M12_g N_X0/X13/21_X0/X13/M12_s
+ N_VDD_X0/X13/M11_b p L=1.8e-07 W=2.88e-06 AD=2.3328e-12 AS=3.1104e-12
mX0/X13/M13 N_VDD_X0/X13/M13_d N_X0/X13/13_X0/X13/M13_g N_X0/X13/17_X0/X13/M13_s
+ N_VDD_X0/X13/M11_b p L=1.8e-07 W=1.44e-06 AD=1.1664e-12 AS=1.1664e-12
mX0/X13/X14/M0 N_GND_X0/X13/X14/M0_d N_X0/X13/18_X0/X13/X14/M0_g
+ N_SUM28_X0/X13/X14/M0_s N_GND_X0/X10/M0_b n L=1.8e-07 W=5.4e-07 AD=4.374e-13
+ AS=4.374e-13
mX0/X13/X14/M1 N_X0/X13/X14/10_X0/X13/X14/M1_d N_X0/32_X0/X13/X14/M1_g
+ N_X0/X13/18_X0/X13/X14/M1_s N_GND_X0/X10/M0_b n L=1.8e-07 W=5.4e-07
+ AD=5.832e-13 AS=4.374e-13
mX0/X13/X14/M2 N_GND_X0/X13/X14/M2_d N_3_X0/X13/X14/M2_g
+ N_X0/X13/X14/10_X0/X13/X14/M2_s N_GND_X0/X10/M0_b n L=1.8e-07 W=5.4e-07
+ AD=5.832e-13 AS=5.832e-13
mX0/X13/X14/M3 N_X0/X13/X14/11_X0/X13/X14/M3_d N_X0/X13/16_X0/X13/X14/M3_g
+ N_GND_X0/X13/X14/M3_s N_GND_X0/X10/M0_b n L=1.8e-07 W=5.4e-07 AD=5.832e-13
+ AS=5.832e-13
mX0/X13/X14/M4 N_X0/X13/18_X0/X13/X14/M4_d N_45_X0/X13/X14/M4_g
+ N_X0/X13/X14/11_X0/X13/X14/M4_s N_GND_X0/X10/M0_b n L=1.8e-07 W=5.4e-07
+ AD=4.374e-13 AS=5.832e-13
mX0/X13/X14/M5 N_X0/X13/X14/9_X0/X13/X14/M5_d N_X0/X13/16_X0/X13/X14/M5_g
+ N_VDD_X0/X13/X14/M5_s N_VDD_X0/X13/X14/M5_b p L=1.8e-07 W=2.88e-06
+ AD=3.1104e-12 AS=2.3328e-12
mX0/X13/X14/M6 N_X0/X13/18_X0/X13/X14/M6_d N_X0/32_X0/X13/X14/M6_g
+ N_X0/X13/X14/9_X0/X13/X14/M6_s N_VDD_X0/X13/X14/M5_b p L=1.8e-07 W=2.88e-06
+ AD=3.1104e-12 AS=3.1104e-12
mX0/X13/X14/M7 N_X0/X13/X14/9_X0/X13/X14/M7_d N_3_X0/X13/X14/M7_g
+ N_X0/X13/18_X0/X13/X14/M7_s N_VDD_X0/X13/X14/M5_b p L=1.8e-07 W=2.88e-06
+ AD=3.1104e-12 AS=3.1104e-12
mX0/X13/X14/M8 N_VDD_X0/X13/X14/M8_d N_45_X0/X13/X14/M8_g
+ N_X0/X13/X14/9_X0/X13/X14/M8_s N_VDD_X0/X13/X14/M5_b p L=1.8e-07 W=2.88e-06
+ AD=2.3328e-12 AS=3.1104e-12
mX0/X13/X14/M9 N_VDD_X0/X13/X14/M9_d N_X0/X13/18_X0/X13/X14/M9_g
+ N_SUM28_X0/X13/X14/M9_s N_VDD_X0/X13/X14/M5_b p L=1.8e-07 W=1.44e-06
+ AD=1.1664e-12 AS=1.1664e-12
mX0/X13/X15/M0 N_GND_X0/X13/X15/M0_d N_X0/28_X0/X13/X15/M0_g
+ N_X0/37_X0/X13/X15/M0_s N_GND_X0/X10/M0_b n L=1.8e-07 W=5.4e-07 AD=4.374e-13
+ AS=4.374e-13
mX0/X13/X15/M1 N_X0/X13/X15/10_X0/X13/X15/M1_d N_X0/X13/17_X0/X13/X15/M1_g
+ N_X0/28_X0/X13/X15/M1_s N_GND_X0/X10/M0_b n L=1.8e-07 W=5.4e-07 AD=5.832e-13
+ AS=4.374e-13
mX0/X13/X15/M2 N_GND_X0/X13/X15/M2_d N_45_X0/X13/X15/M2_g
+ N_X0/X13/X15/10_X0/X13/X15/M2_s N_GND_X0/X10/M0_b n L=1.8e-07 W=5.4e-07
+ AD=5.832e-13 AS=5.832e-13
mX0/X13/X15/M3 N_X0/X13/X15/11_X0/X13/X15/M3_d N_B28_X0/X13/X15/M3_g
+ N_GND_X0/X13/X15/M3_s N_GND_X0/X10/M0_b n L=1.8e-07 W=5.4e-07 AD=5.832e-13
+ AS=5.832e-13
mX0/X13/X15/M4 N_X0/28_X0/X13/X15/M4_d N_A28_X0/X13/X15/M4_g
+ N_X0/X13/X15/11_X0/X13/X15/M4_s N_GND_X0/X10/M0_b n L=1.8e-07 W=5.4e-07
+ AD=4.374e-13 AS=5.832e-13
mX0/X13/X15/M5 N_X0/X13/X15/9_X0/X13/X15/M5_d N_B28_X0/X13/X15/M5_g
+ N_VDD_X0/X13/X15/M5_s N_VDD_X0/X13/X15/M5_b p L=1.8e-07 W=2.88e-06
+ AD=3.1104e-12 AS=2.3328e-12
mX0/X13/X15/M6 N_X0/28_X0/X13/X15/M6_d N_X0/X13/17_X0/X13/X15/M6_g
+ N_X0/X13/X15/9_X0/X13/X15/M6_s N_VDD_X0/X13/X15/M5_b p L=1.8e-07 W=2.88e-06
+ AD=3.1104e-12 AS=3.1104e-12
mX0/X13/X15/M7 N_X0/X13/X15/9_X0/X13/X15/M7_d N_45_X0/X13/X15/M7_g
+ N_X0/28_X0/X13/X15/M7_s N_VDD_X0/X13/X15/M5_b p L=1.8e-07 W=2.88e-06
+ AD=3.1104e-12 AS=3.1104e-12
mX0/X13/X15/M8 N_VDD_X0/X13/X15/M8_d N_A28_X0/X13/X15/M8_g
+ N_X0/X13/X15/9_X0/X13/X15/M8_s N_VDD_X0/X13/X15/M5_b p L=1.8e-07 W=2.88e-06
+ AD=2.3328e-12 AS=3.1104e-12
mX0/X13/X15/M9 N_VDD_X0/X13/X15/M9_d N_X0/28_X0/X13/X15/M9_g
+ N_X0/37_X0/X13/X15/M9_s N_VDD_X0/X13/X15/M5_b p L=1.8e-07 W=1.44e-06
+ AD=1.1664e-12 AS=1.1664e-12
mX0/X13/X16/M0 N_GND_X0/X13/X16/M0_d N_X0/X13/19_X0/X13/X16/M0_g
+ N_X0/32_X0/X13/X16/M0_s N_GND_X0/X10/M0_b n L=1.8e-07 W=5.4e-07 AD=4.374e-13
+ AS=4.374e-13
mX0/X13/X16/M1 N_X0/X13/X16/10_X0/X13/X16/M1_d N_A28N_X0/X13/X16/M1_g
+ N_X0/X13/19_X0/X13/X16/M1_s N_GND_X0/X10/M0_b n L=1.8e-07 W=5.4e-07
+ AD=5.832e-13 AS=4.374e-13
mX0/X13/X16/M2 N_GND_X0/X13/X16/M2_d N_B28_X0/X13/X16/M2_g
+ N_X0/X13/X16/10_X0/X13/X16/M2_s N_GND_X0/X10/M0_b n L=1.8e-07 W=5.4e-07
+ AD=5.832e-13 AS=5.832e-13
mX0/X13/X16/M3 N_X0/X13/X16/11_X0/X13/X16/M3_d N_B28N_X0/X13/X16/M3_g
+ N_GND_X0/X13/X16/M3_s N_GND_X0/X10/M0_b n L=1.8e-07 W=5.4e-07 AD=5.832e-13
+ AS=5.832e-13
mX0/X13/X16/M4 N_X0/X13/19_X0/X13/X16/M4_d N_A28_X0/X13/X16/M4_g
+ N_X0/X13/X16/11_X0/X13/X16/M4_s N_GND_X0/X10/M0_b n L=1.8e-07 W=5.4e-07
+ AD=4.374e-13 AS=5.832e-13
mX0/X13/X16/M5 N_X0/X13/X16/9_X0/X13/X16/M5_d N_B28N_X0/X13/X16/M5_g
+ N_VDD_X0/X13/X16/M5_s N_VDD_X0/X13/X16/M5_b p L=1.8e-07 W=2.88e-06
+ AD=3.1104e-12 AS=2.3328e-12
mX0/X13/X16/M6 N_X0/X13/19_X0/X13/X16/M6_d N_A28N_X0/X13/X16/M6_g
+ N_X0/X13/X16/9_X0/X13/X16/M6_s N_VDD_X0/X13/X16/M5_b p L=1.8e-07 W=2.88e-06
+ AD=3.1104e-12 AS=3.1104e-12
mX0/X13/X16/M7 N_X0/X13/X16/9_X0/X13/X16/M7_d N_B28_X0/X13/X16/M7_g
+ N_X0/X13/19_X0/X13/X16/M7_s N_VDD_X0/X13/X16/M5_b p L=1.8e-07 W=2.88e-06
+ AD=3.1104e-12 AS=3.1104e-12
mX0/X13/X16/M8 N_VDD_X0/X13/X16/M8_d N_A28_X0/X13/X16/M8_g
+ N_X0/X13/X16/9_X0/X13/X16/M8_s N_VDD_X0/X13/X16/M5_b p L=1.8e-07 W=2.88e-06
+ AD=2.3328e-12 AS=3.1104e-12
mX0/X13/X16/M9 N_VDD_X0/X13/X16/M9_d N_X0/X13/19_X0/X13/X16/M9_g
+ N_X0/32_X0/X13/X16/M9_s N_VDD_X0/X13/X16/M5_b p L=1.8e-07 W=1.44e-06
+ AD=1.1664e-12 AS=1.1664e-12
mX0/X14/M0 N_GND_X0/X14/M0_d N_X0/X14/14_X0/X14/M0_g N_X0/X14/16_X0/X14/M0_s
+ N_GND_X0/X10/M0_b n L=1.8e-07 W=5.4e-07 AD=4.374e-13 AS=4.374e-13
mX0/X14/M1 N_GND_X0/X14/M1_d N_X0/X14/13_X0/X14/M1_g N_X0/X14/14_X0/X14/M1_s
+ N_GND_X0/X10/M0_b n L=1.8e-07 W=5.4e-07 AD=5.832e-13 AS=4.374e-13
mX0/X14/M2 N_X0/X14/20_X0/X14/M2_d N_B31_X0/X14/M2_g N_GND_X0/X14/M2_s
+ N_GND_X0/X10/M0_b n L=1.8e-07 W=5.4e-07 AD=5.832e-13 AS=5.832e-13
mX0/X14/M3 N_X0/X14/14_X0/X14/M3_d N_A31_X0/X14/M3_g N_X0/X14/20_X0/X14/M3_s
+ N_GND_X0/X10/M0_b n L=1.8e-07 W=5.4e-07 AD=4.374e-13 AS=5.832e-13
mX0/X14/M4 N_GND_X0/X14/M4_d N_X0/X14/13_X0/X14/M4_g N_X0/X14/17_X0/X14/M4_s
+ N_GND_X0/X10/M0_b n L=1.8e-07 W=5.4e-07 AD=4.374e-13 AS=4.374e-13
mX0/X14/M5 N_X0/X14/13_X0/X14/M5_d N_B31_X0/X14/M5_g N_GND_X0/X14/M5_s
+ N_GND_X0/X10/M0_b n L=1.8e-07 W=5.4e-07 AD=5.832e-13 AS=4.374e-13
mX0/X14/M6 N_GND_X0/X14/M6_d N_A31_X0/X14/M6_g N_X0/X14/13_X0/X14/M6_s
+ N_GND_X0/X10/M0_b n L=1.8e-07 W=5.4e-07 AD=4.374e-13 AS=5.832e-13
mX0/X14/M7 N_X0/X14/15_X0/X14/M7_d N_X0/X14/13_X0/X14/M7_g
+ N_X0/X14/14_X0/X14/M7_s N_VDD_X0/X14/M7_b p L=1.8e-07 W=2.88e-06 AD=3.1104e-12
+ AS=2.3328e-12
mX0/X14/M8 N_VDD_X0/X14/M8_d N_B31_X0/X14/M8_g N_X0/X14/15_X0/X14/M8_s
+ N_VDD_X0/X14/M7_b p L=1.8e-07 W=2.88e-06 AD=3.1104e-12 AS=3.1104e-12
mX0/X14/M9 N_X0/X14/15_X0/X14/M9_d N_A31_X0/X14/M9_g N_VDD_X0/X14/M9_s
+ N_VDD_X0/X14/M7_b p L=1.8e-07 W=2.88e-06 AD=2.3328e-12 AS=3.1104e-12
mX0/X14/M10 N_VDD_X0/X14/M10_d N_X0/X14/14_X0/X14/M10_g N_X0/X14/16_X0/X14/M10_s
+ N_VDD_X0/X14/M7_b p L=1.8e-07 W=1.44e-06 AD=1.1664e-12 AS=1.1664e-12
mX0/X14/M11 N_X0/X14/21_X0/X14/M11_d N_B31_X0/X14/M11_g N_VDD_X0/X14/M11_s
+ N_VDD_X0/X14/M11_b p L=1.8e-07 W=2.88e-06 AD=3.1104e-12 AS=2.3328e-12
mX0/X14/M12 N_X0/X14/13_X0/X14/M12_d N_A31_X0/X14/M12_g N_X0/X14/21_X0/X14/M12_s
+ N_VDD_X0/X14/M11_b p L=1.8e-07 W=2.88e-06 AD=2.3328e-12 AS=3.1104e-12
mX0/X14/M13 N_VDD_X0/X14/M13_d N_X0/X14/13_X0/X14/M13_g N_X0/X14/17_X0/X14/M13_s
+ N_VDD_X0/X14/M11_b p L=1.8e-07 W=1.44e-06 AD=1.1664e-12 AS=1.1664e-12
mX0/X14/X14/M0 N_GND_X0/X14/X14/M0_d N_X0/X14/18_X0/X14/X14/M0_g
+ N_SUM31_X0/X14/X14/M0_s N_GND_X0/X10/M0_b n L=1.8e-07 W=5.4e-07 AD=4.374e-13
+ AS=4.374e-13
mX0/X14/X14/M1 N_X0/X14/X14/10_X0/X14/X14/M1_d N_X0/35_X0/X14/X14/M1_g
+ N_X0/X14/18_X0/X14/X14/M1_s N_GND_X0/X10/M0_b n L=1.8e-07 W=5.4e-07
+ AD=5.832e-13 AS=4.374e-13
mX0/X14/X14/M2 N_GND_X0/X14/X14/M2_d N_X0/29_X0/X14/X14/M2_g
+ N_X0/X14/X14/10_X0/X14/X14/M2_s N_GND_X0/X10/M0_b n L=1.8e-07 W=5.4e-07
+ AD=5.832e-13 AS=5.832e-13
mX0/X14/X14/M3 N_X0/X14/X14/11_X0/X14/X14/M3_d N_X0/X14/16_X0/X14/X14/M3_g
+ N_GND_X0/X14/X14/M3_s N_GND_X0/X10/M0_b n L=1.8e-07 W=5.4e-07 AD=5.832e-13
+ AS=5.832e-13
mX0/X14/X14/M4 N_X0/X14/18_X0/X14/X14/M4_d N_X0/38_X0/X14/X14/M4_g